#RADIOSS STARTER
#--------------------------------------------------------------------------------------------------|
# <example_sid2s_sled> ("Model")
# Copyright (C) <2005>-<2025> Altair Engineering Inc. ("Holder")
# Model is licensed by Holder under CC BY-NC 4.0
# (<https://creativecommons.org/licenses/by-nc/4.0/legalcode).>
#
#--------------------------------------------------------------------------------------------------|#---1----|----2----|----3----|----4----|----5----|----6----|----7----|----8----|----9----|---10----|
/BEGIN
example_sid2s_sled                                                              
      2023         0
                  kg                  mm                  ms
                  kg                  mm                  ms
#---1----|----2----|----3----|----4----|----5----|----6----|----7----|----8----|----9----|---10----|
#-  1. CONTROL CARDS:
#---1----|----2----|----3----|----4----|----5----|----6----|----7----|----8----|----9----|---10----|
/TITLE
SIDIIs (kg, mm, ms)
#---1----|----2----|----3----|----4----|----5----|----6----|----7----|----8----|----9----|---10----|
#include SID2S_0000.rad
#---1----|----2----|----3----|----4----|----5----|----6----|----7----|----8----|----9----|---10----|
#-  2. MATERIALS:
#---1----|----2----|----3----|----4----|----5----|----6----|----7----|----8----|----9----|---10----|
/MAT/PLAS_JOHNS/1
Seat support
#              RHO_I
              7.9E-6                   0
#                  E                  Nu     Iflag
                 210                  .3         0
#                  a                   b                   n           EPS_p_max            SIG_max0
                  .4                 .45                  .6                   0                   0
#                  c           EPS_DOT_0       ICC   Fsmooth               F_cut               Chard
                   0                   0         0         0                   0                   0
#                  m              T_melt              rhoC_p                 T_r
                   0                   0                   0                   0
#---1----|----2----|----3----|----4----|----5----|----6----|----7----|----8----|----9----|---10----|
/MAT/PLAS_JOHNS/2
lap belt anchorage
#              RHO_I
              7.9E-6                   0
#                  E                  Nu     Iflag
                 210                  .3         0
#                  a                   b                   n           EPS_p_max            SIG_max0
                 200                 450                  .5                1E30                 425
#                  c           EPS_DOT_0       ICC   Fsmooth               F_cut               Chard
                   0                   0         0         0                   0                   0
#                  m              T_melt              rhoC_p                 T_r
                   0                   0                   0                   0
#---1----|----2----|----3----|----4----|----5----|----6----|----7----|----8----|----9----|---10----|
/MAT/PLAS_JOHNS/3
floor
#              RHO_I
              7.9E-6                   0
#                  E                  Nu     Iflag
                 205                  .3         0
#                  a                   b                   n           EPS_p_max            SIG_max0
                 200                 450                  .5                1E30                 425
#                  c           EPS_DOT_0       ICC   Fsmooth               F_cut               Chard
                   0                   0         0         0                   0                   0
#                  m              T_melt              rhoC_p                 T_r
                   0                   0                   0                   0
#---1----|----2----|----3----|----4----|----5----|----6----|----7----|----8----|----9----|---10----|
/MAT/PLAS_JOHNS/4
anchorage
#              RHO_I
              7.9E-6                   0
#                  E                  Nu     Iflag
                 210                  .3         0
#                  a                   b                   n           EPS_p_max            SIG_max0
                 200                 450                  .5                1E30                 425
#                  c           EPS_DOT_0       ICC   Fsmooth               F_cut               Chard
                   0                   0         0         0                   0                   0
#                  m              T_melt              rhoC_p                 T_r
                   0                   0                   0                   0
#---1----|----2----|----3----|----4----|----5----|----6----|----7----|----8----|----9----|---10----|
/MAT/FOAM_PLAS/5
seat foam
#              RHO_I
                1E-7                   0
#                  E        Ka  func_IDf          Fscalecurv
                .015         0         3                .001
#                 P0                 Phi             Gamma_0
                   0                   0                   0
#                  A                   B                   C
                   0                   0                   0
#---1----|----2----|----3----|----4----|----5----|----6----|----7----|----8----|----9----|---10----|
/MAT/FABRI/6
seat tissue
#              RHO_I               RHO_O
                2E-7                   0
#                E11                 E22                NU12
                  .2                  .2                  .3
#                G12                 G23                 G31
                .076                .076                .076
#                R_E                              ZEROSTRESS          FSCALE_POR   SENS_ID
                .001                                       0                   0         0
#---1----|----2----|----3----|----4----|----5----|----6----|----7----|----8----|----9----|---10----|
/MAT/PLAS_JOHNS/7
Seat support
#              RHO_I
              7.9E-6                   0
#                  E                  Nu     Iflag
                 210                  .3         0
#                  a                   b                   n           EPS_p_max            SIG_max0
                  .4                 .45                  .6                   0                   0
#                  c           EPS_DOT_0       ICC   Fsmooth               F_cut               Chard
                   0                   0         0         0                   0                   0
#                  m              T_melt              rhoC_p                 T_r
                   0                   0                   0                   0
#---1----|----2----|----3----|----4----|----5----|----6----|----7----|----8----|----9----|---10----|
/MAT/FOAM_PLAS/8
seat foam
#              RHO_I
                1E-7                   0
#                  E        Ka  func_IDf          Fscalecurv
                .015         0         5                .001
#                 P0                 Phi             Gamma_0
                   0                   0                   0
#                  A                   B                   C
                   0                   0                   0
#---1----|----2----|----3----|----4----|----5----|----6----|----7----|----8----|----9----|---10----|
/MAT/FABRI/9
seat tissue
#              RHO_I               RHO_O
                2E-7                   0
#                E11                 E22                NU12
                  .2                  .2                  .3
#                G12                 G23                 G31
                .076                .076                .076
#                R_E                              ZEROSTRESS          FSCALE_POR   SENS_ID
                .001                                       0                   0         0
#---1----|----2----|----3----|----4----|----5----|----6----|----7----|----8----|----9----|---10----|
/MAT/LAW65/10
2D__BELT
#              RHO_I
            1.098E-6                   0
#                 E0                  NU             EPS_max
                  60                  .3                   0
#    Nrate   Fsmooth                Fcut
         1         0                   0
#FUNC_IDld FUNC_IDul       FSCALESTRESS                 EPS
         6         7                  10                   0
#---1----|----2----|----3----|----4----|----5----|----6----|----7----|----8----|----9----|---10----|
/MAT/FOAM_PLAS/11
seat foam
#              RHO_I
                1E-7                   0
#                  E        Ka  func_IDf          Fscalecurv
                .015         0         8                .001
#                 P0                 Phi             Gamma_0
                   0                   0                   0
#                  A                   B                   C
                   0                   0                   0
#---1----|----2----|----3----|----4----|----5----|----6----|----7----|----8----|----9----|---10----|
/MAT/PLAS_JOHNS/12
Seat support
#              RHO_I
              7.9E-6                   0
#                  E                  Nu     Iflag
                 210                  .3         0
#                  a                   b                   n           EPS_p_max            SIG_max0
                  .4                 .45                  .6                   0                   0
#                  c           EPS_DOT_0       ICC   Fsmooth               F_cut               Chard
                   0                   0         0         0                   0                   0
#                  m              T_melt              rhoC_p                 T_r
                   0                   0                   0                   0
#---1----|----2----|----3----|----4----|----5----|----6----|----7----|----8----|----9----|---10----|
#-  3. NODES:
#---1----|----2----|----3----|----4----|----5----|----6----|----7----|----8----|----9----|---10----|
/NODE
         1    157.506594640622    172.999543884798    309.203064101981
         2    157.506594640622    422.999543884798    309.203064101981
         3    157.506594640622    -77.000456115202    309.203064101981
         4    193.318623141242     47.999543884798    512.303170187157
         5    193.318623141242    172.999543884798    512.303170187157
         6    157.506594640622     47.999543884798    309.203064101981
         7    193.318623141242    -77.000456115202    512.303170187157
         8    121.694566139898     47.999543884798    106.102958016834
         9    121.694566139898    -77.000456115202    106.102958016834
        10    121.694566139898    172.999543884798    106.102958016834
        11    121.694566139898    297.999543884798    106.102958016834
        12    157.506594640622    297.999543884798    309.203064101981
        13    121.694566139898    422.999543884798    106.102958016834
        14    193.318623141242    297.999543884798    512.303170187157
        15    193.318623141242    422.999543884798    512.303170187157
        16    -2.4193375776526    -77.000456115203    -94.259739884992
        17    -372.80246530083    422.999543884799    -35.596815494907
        18    -2.4193375776501    422.999543884797    -94.259739884993
        19    -372.80246530083    -77.000456115201    -35.596815494907
        20     139.60058039031    360.499543884798    207.653011059412
# ... 27578 like lines cut
#---1----|----2----|----3----|----4----|----5----|----6----|----7----|----8----|----9----|---10----|
#-  4. BOUNDARY CONDITIONS:
#---1----|----2----|----3----|----4----|----5----|----6----|----7----|----8----|----9----|---10----|
/BCS/1
Floor
#  Tra rot   skew_ID  grnod_ID
   101 111         0         3
/GRNOD/NODE/3
BCS_group_342_of_NODE
      6310
#---1----|----2----|----3----|----4----|----5----|----6----|----7----|----8----|----9----|---10----|
#-  5. PARTS:
#---1----|----2----|----3----|----4----|----5----|----6----|----7----|----8----|----9----|---10----|
/PART/1
Backseat plate
         1         1         4
#---1----|----2----|----3----|----4----|----5----|----6----|----7----|----8----|----9----|---10----|
# SHELL elements of /PART/1/Backseat plate:
#---1----|----2----|----3----|----4----|----5----|----6----|----7----|----8----|----9----|---10----|
/SHELL/1
         1       150      1229      1228      1232
         2       348      1230      1228      1229
         3       346      1231      1228      1230
         4       347      1232      1228      1231
         5       198      1234      1233      1237
         6       501      1235      1233      1234
         7       537      1236      1233      1235
         8       538      1237      1233      1236
         9       197      1239      1238      1241
        10       538      1236      1238      1239
        11       537      1240      1238      1236
        12       536      1241      1238      1240
        13       199      1243      1242      1245
        14       536      1240      1242      1243
        15       537      1244      1242      1240
        16       526      1245      1242      1244
        17        37      1247      1246      1248
        18       526      1244      1246      1247
        19       537      1235      1246      1244
        20       501      1248      1246      1235
# ... 2388 like lines cut
#---1----|----2----|----3----|----4----|----5----|----6----|----7----|----8----|----9----|---10----|
/PART/2
Feet
         2         1         4
#---1----|----2----|----3----|----4----|----5----|----6----|----7----|----8----|----9----|---10----|
# BEAM elements of /PART/2/Feet:
#---1----|----2----|----3----|----4----|----5----|----6----|----7----|----8----|----9----|---10----|
/BEAM/2
     28545       246       250        19
     28546       248       244        16
     28547       249       245        17
     28548       247       243        18
#---1----|----2----|----3----|----4----|----5----|----6----|----7----|----8----|----9----|---10----|
/PART/3
Backseat frame
         3         1         4
#---1----|----2----|----3----|----4----|----5----|----6----|----7----|----8----|----9----|---10----|
# SHELL elements of /PART/3/Backseat frame:
#---1----|----2----|----3----|----4----|----5----|----6----|----7----|----8----|----9----|---10----|
/SHELL/3
        69       226      1292      1291      1295
        70       411      1293      1291      1292
        71       409      1294      1291      1293
        72       410      1295      1291      1294
        74       410      1294      1296      1297
        75       409      1298      1296      1294
       177       160      1389      1388      1392
       178       572      1390      1388      1389
       179       571      1391      1388      1390
       180       563      1392      1388      1391
       189         6      1402      1401      1403
       190       544      1399      1401      1402
       191       571      1390      1401      1399
       192       572      1403      1401      1390
       237       110      1440      1439      1442
       238       497      1437      1439      1440
       239       495      1441      1439      1437
       240       496      1442      1439      1441
       241        39      1444      1443      1445
       242       496      1441      1443      1444
# ... 3446 like lines cut
#---1----|----2----|----3----|----4----|----5----|----6----|----7----|----8----|----9----|---10----|
/PART/4
belt anchorage
         4         2         1
#---1----|----2----|----3----|----4----|----5----|----6----|----7----|----8----|----9----|---10----|
# TRUSS elements of /PART/4/belt anchorage:
#---1----|----2----|----3----|----4----|----5----|----6----|----7----|----8----|----9----|---10----|
/TRUSS/4
     28543      5738      5735
     28544      5734      5741
#---1----|----2----|----3----|----4----|----5----|----6----|----7----|----8----|----9----|---10----|
/PART/5
Belt pulley
         5         0         1
#---1----|----2----|----3----|----4----|----5----|----6----|----7----|----8----|----9----|---10----|
# SPRING elements of /PART/5/Belt pulley:
#---1----|----2----|----3----|----4----|----5----|----6----|----7----|----8----|----9----|---10----|
/SPRING/5
     28552      5739      5741      5737                              
     28553      5740      5736      5743                              
#---1----|----2----|----3----|----4----|----5----|----6----|----7----|----8----|----9----|---10----|
/PART/6
Limiter
         6         0         1
#---1----|----2----|----3----|----4----|----5----|----6----|----7----|----8----|----9----|---10----|
# SPRING elements of /PART/6/Limiter:
#---1----|----2----|----3----|----4----|----5----|----6----|----7----|----8----|----9----|---10----|
/SPRING/6
     28554      5742      5743                                        
#---1----|----2----|----3----|----4----|----5----|----6----|----7----|----8----|----9----|---10----|
/PART/7
Pretensionner
         7         0         1
#---1----|----2----|----3----|----4----|----5----|----6----|----7----|----8----|----9----|---10----|
# SPRING elements of /PART/7/Pretensionner:
#---1----|----2----|----3----|----4----|----5----|----6----|----7----|----8----|----9----|---10----|
/SPRING/7
     28555      5735      5742                                        
#---1----|----2----|----3----|----4----|----5----|----6----|----7----|----8----|----9----|---10----|
/PART/8
Floor
         8         3         2
#---1----|----2----|----3----|----4----|----5----|----6----|----7----|----8----|----9----|---10----|
# SHELL elements of /PART/8/Floor:
#---1----|----2----|----3----|----4----|----5----|----6----|----7----|----8----|----9----|---10----|
/SHELL/8
      5875      5757      5828      5827      5831
      5876      5791      5829      5827      5828
      5877      5787      5830      5827      5829
      5878      5790      5831      5827      5830
      5879      5760      5833      5832      5835
      5880      5790      5830      5832      5833
      5881      5787      5834      5832      5830
      5882      5789      5835      5832      5834
      5883      5763      5837      5836      5839
      5884      5789      5834      5836      5837
      5885      5787      5838      5836      5834
      5886      5788      5839      5836      5838
      5887      5754      5841      5840      5842
      5888      5788      5838      5840      5841
      5889      5787      5829      5840      5838
      5890      5791      5842      5840      5829
      5891      5767      5844      5843      5847
      5892      5786      5845      5843      5844
      5893      5784      5846      5843      5845
      5894      5773      5847      5843      5846
# ... 492 like lines cut
#---1----|----2----|----3----|----4----|----5----|----6----|----7----|----8----|----9----|---10----|
/PART/9
Seat belt anchorage point
         9         4         2
#---1----|----2----|----3----|----4----|----5----|----6----|----7----|----8----|----9----|---10----|
# BEAM elements of /PART/9/Seat belt anchorage point:
#---1----|----2----|----3----|----4----|----5----|----6----|----7----|----8----|----9----|---10----|
/BEAM/9
     28549      6307      5744      6309
     28550      5745      6308      6309
     28551      6308      6309      5745
#---1----|----2----|----3----|----4----|----5----|----6----|----7----|----8----|----9----|---10----|
/PART/10
cushion
        10         5         3
#---1----|----2----|----3----|----4----|----5----|----6----|----7----|----8----|----9----|---10----|
# BRICK elements of /PART/10/cushion:
#---1----|----2----|----3----|----4----|----5----|----6----|----7----|----8----|----9----|---10----|
/BRICK/10
     20693      6444      6447      6449      6443      7039      7040      7041      7042
     20694      6443      6449      6450      6442      7042      7041      7043      7044
     20695      6442      6450      6438      6439      7044      7043      7045      7046
     20696      6429      6451      6448      6428      7047      7048      7049      7050
     20697      6451      6449      6447      6448      7048      7041      7040      7049
     20698      6430      6452      6451      6429      7051      7052      7048      7047
     20699      6452      6450      6449      6451      7052      7043      7041      7048
     20700      6431      6437      6452      6430      7053      7054      7052      7051
     20701      6437      6438      6450      6452      7054      7045      7043      7052
     20702      6416      6417      6453      6446      7055      7056      7057      7058
     20703      6446      6453      6454      6445      7058      7057      7059      7060
     20704      6445      6454      6447      6444      7060      7059      7040      7039
     20705      6426      6455      6418      6419      7061      7062      7063      7064
     20706      6455      6453      6417      6418      7062      7057      7056      7063
     20707      6427      6456      6455      6426      7065      7066      7062      7061
     20708      6456      6454      6453      6455      7066      7059      7057      7062
     20709      6428      6448      6456      6427      7050      7049      7066      7065
     20710      6448      6447      6454      6456      7049      7040      7059      7066
     20711      6395      6459      6441      6394      7067      7068      7069      7070
     20712      6459      6460      6440      6441      7068      7071      7072      7069
# ... 3355 like lines cut
#---1----|----2----|----3----|----4----|----5----|----6----|----7----|----8----|----9----|---10----|
/PART/11
Fabric backframe
        11         6         3
#---1----|----2----|----3----|----4----|----5----|----6----|----7----|----8----|----9----|---10----|
# SHELL elements of /PART/11/Fabric backframe:
#---1----|----2----|----3----|----4----|----5----|----6----|----7----|----8----|----9----|---10----|
/SHELL/11
      6387      6920      6313      6311      6388
      6388      6311      6313      7621      7624
      6389      6388      6311      7624      7623
      6390      6339      6312      6338      6687
      6391      6338      6312      7361      7360
      6392      6312      6339      7359      7361
      6393      6916      6314      6313      6920
      6394      6313      6314      7622      7621
      6395      6923      6315      6314      6916
      6396      6314      6315      7633      7622
      6397      6894      6316      6315      6923
      6398      6315      6316      7595      7633
      6399      6316      6894      6905      6317
      6400      6316      6317      7596      7595
      6401      6906      6318      6317      6905
      6402      6317      6318      7601      7596
      6403      6870      6319      6318      6906
      6404      6318      6319      7602      7601
      6405      6998      6320      6319      6870
      6406      6319      6320      7723      7602
# ... 1850 like lines cut
#---1----|----2----|----3----|----4----|----5----|----6----|----7----|----8----|----9----|---10----|
/PART/12
Seat plate
        12         7         4
#---1----|----2----|----3----|----4----|----5----|----6----|----7----|----8----|----9----|---10----|
# SHELL elements of /PART/12/Seat plate:
#---1----|----2----|----3----|----4----|----5----|----6----|----7----|----8----|----9----|---10----|
/SHELL/12
      8257     10711     12121     12120     12124
      8258     11609     12122     12120     12121
      8259     11875     12123     12120     12122
      8260     11216     12124     12120     12123
      8261     10954     12126     12125     12129
      8262     11829     12127     12125     12126
      8263     11872     12128     12125     12127
      8264     11874     12129     12125     12128
      8265     10963     12131     12130     12133
      8266     11874     12128     12130     12131
      8267     11872     12132     12130     12128
      8268     11873     12133     12130     12132
      8269     10794     12135     12134     12137
      8270     11873     12132     12134     12135
      8271     11872     12136     12134     12132
      8272     11209     12137     12134     12136
      8273     10697     12139     12138     12140
      8274     11209     12136     12138     12139
      8275     11872     12127     12138     12136
      8276     11829     12140     12138     12127
# ... 3116 like lines cut
#---1----|----2----|----3----|----4----|----5----|----6----|----7----|----8----|----9----|---10----|
/PART/13
Seat frame
        13         7         4
#---1----|----2----|----3----|----4----|----5----|----6----|----7----|----8----|----9----|---10----|
# SHELL elements of /PART/13/Seat frame:
#---1----|----2----|----3----|----4----|----5----|----6----|----7----|----8----|----9----|---10----|
/SHELL/13
      8437     10957     12276     12275     12279
      8438     11846     12277     12275     12276
      8439     11844     12278     12275     12277
      8440     11842     12279     12275     12278
      8441     10956     12281     12280     12269
      8442     11842     12278     12280     12281
      8443     11844     12282     12280     12278
      8444     11845     12269     12280     12282
      8445     10951     12267     12283     12285
      8446     11845     12282     12283     12267
      8447     11844     12284     12283     12282
      8448     11827     12285     12283     12284
      8449     10705     12287     12286     12288
      8450     11827     12284     12286     12287
      8451     11844     12277     12286     12284
      8452     11846     12288     12286     12277
      8453     10835     12290     12289     12258
      8454     11357     12291     12289     12290
      8455     11840     12292     12289     12291
      8456     11843     12258     12289     12292
# ... 3340 like lines cut
#---1----|----2----|----3----|----4----|----5----|----6----|----7----|----8----|----9----|---10----|
/PART/14
cushion
        14         8         5
#---1----|----2----|----3----|----4----|----5----|----6----|----7----|----8----|----9----|---10----|
# BRICK elements of /PART/14/cushion:
#---1----|----2----|----3----|----4----|----5----|----6----|----7----|----8----|----9----|---10----|
/BRICK/14
     24068     17161     17164     17166     17160     17732     17733     17734     17735
     24069     17160     17166     17167     17159     17735     17734     17736     17737
     24070     17159     17167     17155     17156     17737     17736     17738     17739
     24071     17146     17168     17165     17145     17740     17741     17742     17743
     24072     17168     17166     17164     17165     17741     17734     17733     17742
     24073     17147     17169     17168     17146     17744     17745     17741     17740
     24074     17169     17167     17166     17168     17745     17736     17734     17741
     24075     17148     17154     17169     17147     17746     17747     17745     17744
     24076     17154     17155     17167     17169     17747     17738     17736     17745
     24077     17134     17135     17170     17163     17748     17749     17750     17751
     24078     17163     17170     17171     17162     17751     17750     17752     17753
     24079     17162     17171     17164     17161     17753     17752     17733     17732
     24080     17143     17172     17136     17137     17754     17755     17756     17757
     24081     17172     17170     17135     17136     17755     17750     17749     17756
     24082     17144     17173     17172     17143     17758     17759     17755     17754
     24083     17173     17171     17170     17172     17759     17752     17750     17755
     24084     17145     17165     17173     17144     17743     17742     17759     17758
     24085     17165     17164     17171     17173     17742     17733     17752     17759
     24086     17113     17176     17158     17112     17760     17761     17762     17763
     24087     17176     17177     17157     17158     17761     17764     17765     17762
# ... 3105 like lines cut
#---1----|----2----|----3----|----4----|----5----|----6----|----7----|----8----|----9----|---10----|
/PART/15
Fabric seat cushion
        15         9         5
#---1----|----2----|----3----|----4----|----5----|----6----|----7----|----8----|----9----|---10----|
# SHELL elements of /PART/15/Fabric seat cushion:
#---1----|----2----|----3----|----4----|----5----|----6----|----7----|----8----|----9----|---10----|
/SHELL/15
     14753     17613     17057     17056     17106
     14754     17056     17057     18262     18265
     14755     17106     17056     18265     18264
     14756     17609     17058     17057     17613
     14757     17057     17058     18263     18262
     14758     17616     17059     17058     17609
     14759     17058     17059     18274     18263
     14760     17587     17060     17059     17616
     14761     17059     17060     18236     18274
     14762     17060     17587     17598     17061
     14763     17060     17061     18237     18236
     14764     17599     17062     17061     17598
     14765     17061     17062     18242     18237
     14766     17563     17063     17062     17599
     14767     17062     17063     18243     18242
     14768     17691     17064     17063     17563
     14769     17063     17064     18364     18243
     14770     17687     17065     17064     17691
     14771     17064     17065     18365     18364
     14772     17694     17066     17065     17687
# ... 1730 like lines cut
#---1----|----2----|----3----|----4----|----5----|----6----|----7----|----8----|----9----|---10----|
/PART/16
cushion_hand
        17        11         3
#---1----|----2----|----3----|----4----|----5----|----6----|----7----|----8----|----9----|---10----|
# BRICK elements of /PART/16/cushion_hand:
#---1----|----2----|----3----|----4----|----5----|----6----|----7----|----8----|----9----|---10----|
/BRICK/16
     27193     21245     21248     21250     21244     21840     21841     21842     21843
     27194     21244     21250     21251     21243     21843     21842     21844     21845
     27195     21243     21251     21239     21240     21845     21844     21846     21847
     27196     21230     21252     21249     21229     21848     21849     21850     21851
     27197     21252     21250     21248     21249     21849     21842     21841     21850
     27198     21231     21253     21252     21230     21852     21853     21849     21848
     27199     21253     21251     21250     21252     21853     21844     21842     21849
     27200     21232     21238     21253     21231     21854     21855     21853     21852
     27201     21238     21239     21251     21253     21855     21846     21844     21853
     27202     21217     21218     21254     21247     21856     21857     21858     21859
     27203     21247     21254     21255     21246     21859     21858     21860     21861
     27204     21246     21255     21248     21245     21861     21860     21841     21840
     27205     21227     21256     21219     21220     21862     21863     21864     21865
     27206     21256     21254     21218     21219     21863     21858     21857     21864
     27207     21228     21257     21256     21227     21866     21867     21863     21862
     27208     21257     21255     21254     21256     21867     21860     21858     21863
     27209     21229     21249     21257     21228     21851     21850     21867     21866
     27210     21249     21248     21255     21257     21850     21841     21860     21867
     27211     21196     21260     21242     21195     21868     21869     21870     21871
     27212     21260     21261     21241     21242     21869     21872     21873     21870
# ... 1330 like lines cut
#---1----|----2----|----3----|----4----|----5----|----6----|----7----|----8----|----9----|---10----|
/PART/17
Backseat frame_hand
        18        12         4
#---1----|----2----|----3----|----4----|----5----|----6----|----7----|----8----|----9----|---10----|
# SHELL elements of /PART/17/Backseat frame_hand:
#---1----|----2----|----3----|----4----|----5----|----6----|----7----|----8----|----9----|---10----|
/SHELL/17
     16503     23384     23945     23944     23948
     16504     23495     23946     23944     23945
     16505     23493     23947     23944     23946
     16506     23494     23948     23944     23947
     16507     23494     23947     23949     23950
     16508     23493     23951     23949     23947
     16509     23355     23953     23952     23956
     16510     23561     23954     23952     23953
     16511     23560     23955     23952     23954
     16512     23559     23956     23952     23955
     16513     23299     23959     23958     23960
     16514     23544     23957     23958     23959
     16515     23560     23954     23958     23957
     16516     23561     23960     23958     23954
     16517     23335     23964     23963     23966
     16518     23534     23962     23963     23964
     16519     23532     23965     23963     23962
     16520     23533     23966     23963     23965
     16521     23309     23968     23967     23969
     16522     23533     23965     23967     23968
# ... 3446 like lines cut
#---1----|----2----|----3----|----4----|----5----|----6----|----7----|----8----|----9----|---10----|
/PART/15000280
Shoulder
        16        10         0
#---1----|----2----|----3----|----4----|----5----|----6----|----7----|----8----|----9----|---10----|
# SHELL elements of /PART/15000280/Shoulder:
#---1----|----2----|----3----|----4----|----5----|----6----|----7----|----8----|----9----|---10----|
/SHELL/15000280
  15015511  15035939  15035940  15035945  15035944
  15015512  15035940  15035941  15035946  15035945
  15015513  15035941  15035942  15035947  15035946
  15015514  15035942  15035943  15035948  15035947
  15015515  15035944  15035945  15035950  15035949
  15015516  15035945  15035946  15035951  15035950
  15015517  15035946  15035947  15035952  15035951
  15015518  15035947  15035948  15035953  15035952
  15015519  15035949  15035950  15035955  15035954
  15015520  15035950  15035951  15035956  15035955
  15015521  15035951  15035952  15035957  15035956
  15015522  15035952  15035953  15035958  15035957
  15015523  15035954  15035955  15035960  15035959
  15015524  15035955  15035956  15035961  15035960
  15015525  15035956  15035957  15035962  15035961
  15015526  15035957  15035958  15035963  15035962
  15015527  15035959  15035960  15035965  15035964
  15015528  15035960  15035961  15035966  15035965
  15015529  15035961  15035962  15035967  15035966
  15015530  15035962  15035963  15035968  15035967
# ... 316 like lines cut
#---1----|----2----|----3----|----4----|----5----|----6----|----7----|----8----|----9----|---10----|
/PART/15000281
Lap
        16        10         0
#---1----|----2----|----3----|----4----|----5----|----6----|----7----|----8----|----9----|---10----|
# SHELL elements of /PART/15000281/Lap:
#---1----|----2----|----3----|----4----|----5----|----6----|----7----|----8----|----9----|---10----|
/SHELL/15000281
  15015848  15036366  15036367  15036372  15036371
  15015849  15036367  15036368  15036373  15036372
  15015850  15036368  15036369  15036374  15036373
  15015851  15036369  15036370  15036375  15036374
  15015852  15036371  15036372  15036377  15036376
  15015853  15036372  15036373  15036378  15036377
  15015854  15036373  15036374  15036379  15036378
  15015855  15036374  15036375  15036380  15036379
  15015856  15036376  15036377  15036382  15036381
  15015857  15036377  15036378  15036383  15036382
  15015858  15036378  15036379  15036384  15036383
  15015859  15036379  15036380  15036385  15036384
  15015860  15036381  15036382  15036387  15036386
  15015861  15036382  15036383  15036388  15036387
  15015862  15036383  15036384  15036389  15036388
  15015863  15036384  15036385  15036390  15036389
  15015864  15036386  15036387  15036392  15036391
  15015865  15036387  15036388  15036393  15036392
  15015866  15036388  15036389  15036394  15036393
  15015867  15036389  15036390  15036395  15036394
# ... 304 like lines cut
#---1----|----2----|----3----|----4----|----5----|----6----|----7----|----8----|----9----|---10----|
#-  6. SUBSETS:
#---1----|----2----|----3----|----4----|----5----|----6----|----7----|----8----|----9----|---10----|
/SUBSET/1
Seat model
#---1----|----2----|----3----|----4----|----5----|----6----|----7----|----8----|----9----|---10----|
/SUBSET/2
FLOOR_00_0000.rad
#---1----|----2----|----3----|----4----|----5----|----6----|----7----|----8----|----9----|---10----|
/SUBSET/3
Foams
#---1----|----2----|----3----|----4----|----5----|----6----|----7----|----8----|----9----|---10----|
/SUBSET/4
Seat nafe S3
         1         2         3         5
#---1----|----2----|----3----|----4----|----5----|----6----|----7----|----8----|----9----|---10----|
/SUBSET/5
Foams
#---1----|----2----|----3----|----4----|----5----|----6----|----7----|----8----|----9----|---10----|
/SUBSET/15000280
SIDIIs (kg, mm, ms)
  15000006
#---1----|----2----|----3----|----4----|----5----|----6----|----7----|----8----|----9----|---10----|
#-  7. GEOMETRICAL SETS:
#---1----|----2----|----3----|----4----|----5----|----6----|----7----|----8----|----9----|---10----|
/PROP/SHELL/1
Shell
#   Ishell    Ismstr     Ish3n    Idrill                            P_thick_fail
        24         0         0         0                                       0
#                 hm                  hf                  hr                  dm                  dn
                   0                   0                   0                   0                   0
#        N   Istrain               Thick              Ashear              Ithick     Iplas
         5         0                 1.5                   0                   0         0
#---1----|----2----|----3----|----4----|----5----|----6----|----7----|----8----|----9----|---10----|
/PROP/BEAM/2
BEAM
#             Ismstr
                   0
#                 dm                  df
                   0                   0
#               Area                 Iyy                 Izz                 Ixx
                 130               15000               15000               30000
# OmegaDof    Ishear
   000 000         0
#---1----|----2----|----3----|----4----|----5----|----6----|----7----|----8----|----9----|---10----|
/PROP/SHELL/3
Shell
#   Ishell    Ismstr     Ish3n    Idrill                            P_thick_fail
        24         0         0         0                                       0
#                 hm                  hf                  hr                  dm                  dn
                   0                   0                   0                   0                   0
#        N   Istrain               Thick              Ashear              Ithick     Iplas
         5         0                 1.5                   0                   0         0
#---1----|----2----|----3----|----4----|----5----|----6----|----7----|----8----|----9----|---10----|
/PROP/TRUSS/4
Wire
#               Area             Gap_ini
                  50                   0
#---1----|----2----|----3----|----4----|----5----|----6----|----7----|----8----|----9----|---10----|
/PROP/SPR_PUL/5
Belt pulley
#               Mass                               sensor_ID    Isflag     Ileng                Fric
                .001                                       0         0         1                  .2
#                  K                   C                   A                   B                   D
                 100                   0                   0                   0                   0
#funct_ID1         H funct_ID2 funct_ID3 funct_ID4                     delta_min           delta_max
         0         0         0         0         0                             0                   0
#            Fscale1                   E             Ascalex                  H4
                   0                   0                   0                   0
# Fct_IDfr       Ifr            Yscale_F            Xscale_F               F_min               F_max
         0         0                   0                   0                   0                   0
#---1----|----2----|----3----|----4----|----5----|----6----|----7----|----8----|----9----|---10----|
/PROP/SPRING/6
Load limiter
#                  M                               sensor_ID    Isflag     Ileng
                .001                                       0         0         0
#                  K                   C                   A                   B                   D
                  10                   0                   0                   0                   0
#funct_ID1         H funct_ID2 funct_ID3 funct_ID4                     delta_min           delta_max
         1         2         0         0         0                             0                   0
#            Fscale1                   E             Ascalex             HSCALE4
                   1                   0                   0                   0
#---1----|----2----|----3----|----4----|----5----|----6----|----7----|----8----|----9----|---10----|
/PROP/SPR_PRE/7
Pretensioner
#                  M                               sensor_ID     Ilock
                .001                                       1         1
#              Stif0                  F1                  D1                  E1               Stif1
                  10                   0                   0                   0                   0
#  fct_ID1   fct_ID2                                Ascale_2            Ascale_1            Fscale_F
         2         0                                    1000                   1                .001
#---1----|----2----|----3----|----4----|----5----|----6----|----7----|----8----|----9----|---10----|
/PROP/SHELL/8
Shell
#   Ishell    Ismstr     Ish3n    Idrill                            P_thick_fail
        24         0         0         0                                       0
#                 hm                  hf                  hr                  dm                  dn
                   0                   0                   0                   0                   0
#        N   Istrain               Thick              Ashear              Ithick     Iplas
         5         0                 1.5                   0                   0         0
#---1----|----2----|----3----|----4----|----5----|----6----|----7----|----8----|----9----|---10----|
/PROP/BEAM/9
BEAM
#             Ismstr
                   0
#                 dm                  df
                   0                   0
#               Area                 Iyy                 Izz                 Ixx
                 130               15000               15000               30000
# OmegaDof    Ishear
   000 000         0
#---1----|----2----|----3----|----4----|----5----|----6----|----7----|----8----|----9----|---10----|
/PROP/SOLID/10
Foam
#   Isolid    Ismstr               Icpre  Itetra10     Inpts   Itetra4    Iframe                  dn
        24         0                   0         0         0         0         0                   0
#                q_a                 q_b                   h            LAMBDA_V                MU_V
                   0                   0                   0                   0                   0
#             dt_min
                   0
#---1----|----2----|----3----|----4----|----5----|----6----|----7----|----8----|----9----|---10----|
/PROP/SH_ORTH/11
Fabric
#   Ishell    Ismstr     Ish3n    Idrill                            P_thick_fail
        24         0         0         0                                       0
#                 hm                  hf                  hr                  dm                  dn
                   0                   0                   0                   0                   0
#        N   Istrain               Thick              Ashear              Ithick     Iplas
         1         0                  .7                   0                   0         0
#                 Vx                  Vy                  Vz                 Phi
                   1                   1                   1                   0
#---1----|----2----|----3----|----4----|----5----|----6----|----7----|----8----|----9----|---10----|
/PROP/SHELL/12
Shell
#   Ishell    Ismstr     Ish3n    Idrill                            P_thick_fail
        24         0         0         0                                       0
#                 hm                  hf                  hr                  dm                  dn
                   0                   0                   0                   0                   0
#        N   Istrain               Thick              Ashear              Ithick     Iplas
         5         0                 1.5                   0                   0         0
#---1----|----2----|----3----|----4----|----5----|----6----|----7----|----8----|----9----|---10----|
/PROP/SHELL/13
Shell
#   Ishell    Ismstr     Ish3n    Idrill                            P_thick_fail
        24         0         0         0                                       0
#                 hm                  hf                  hr                  dm                  dn
                   0                   0                   0                   0                   0
#        N   Istrain               Thick              Ashear              Ithick     Iplas
         5         0                   3                   0                   0         0
#---1----|----2----|----3----|----4----|----5----|----6----|----7----|----8----|----9----|---10----|
/PROP/SOLID/14
Foam
#   Isolid    Ismstr               Icpre  Itetra10     Inpts   Itetra4    Iframe                  dn
        24         0                   0         0         0         0         0                   0
#                q_a                 q_b                   h            LAMBDA_V                MU_V
                   0                   0                   0                   0                   0
#             dt_min
                   0
#---1----|----2----|----3----|----4----|----5----|----6----|----7----|----8----|----9----|---10----|
/PROP/SH_ORTH/15
Fabric
#   Ishell    Ismstr     Ish3n    Idrill                            P_thick_fail
        24         0         0         0                                       0
#                 hm                  hf                  hr                  dm                  dn
                   0                   0                   0                   0                   0
#        N   Istrain               Thick              Ashear              Ithick     Iplas
         1         0                  .7                   0                   0         0
#                 Vx                  Vy                  Vz                 Phi
                   1                   1                   1                   0
#---1----|----2----|----3----|----4----|----5----|----6----|----7----|----8----|----9----|---10----|
/PROP/SHELL/16
2D Belt
#   Ishell    Ismstr     Ish3n    Idrill                            P_thick_fail
        24         2         0         0                                       0
#                 hm                  hf                  hr                  dm                  dn
                   0                   0                   0                   0                   0
#        N   Istrain               Thick              Ashear              Ithick     Iplas
         2         0                 1.5                   1                   1         2
#---1----|----2----|----3----|----4----|----5----|----6----|----7----|----8----|----9----|---10----|
/PROP/SOLID/17
Foam
#   Isolid    Ismstr               Icpre  Itetra10     Inpts   Itetra4    Iframe                  dn
        24         0                   0         0         0         0         0                   0
#                q_a                 q_b                   h            LAMBDA_V                MU_V
                   0                   0                   0                   0                   0
#             dt_min
                   0
#---1----|----2----|----3----|----4----|----5----|----6----|----7----|----8----|----9----|---10----|
/PROP/SHELL/18
Shell
#   Ishell    Ismstr     Ish3n    Idrill                            P_thick_fail
        24         0         0         0                                       0
#                 hm                  hf                  hr                  dm                  dn
                   0                   0                   0                   0                   0
#        N   Istrain               Thick              Ashear              Ithick     Iplas
         5         0                 1.5                   0                   0         0
#---1----|----2----|----3----|----4----|----5----|----6----|----7----|----8----|----9----|---10----|
#-  8. FUNCTIONS:
#---1----|----2----|----3----|----4----|----5----|----6----|----7----|----8----|----9----|---10----|
/FUNCT/1
Load limitor
#                  X                   Y
                -100                   0
                   0                   0
                  .6                   6
                 100                   6
                 101                  16
#---1----|----2----|----3----|----4----|----5----|----6----|----7----|----8----|----9----|---10----|
/FUNCT/2
Pretensionner
#                  X                   Y
                -121                 -10
                -120                   0
                 -50                 2.5
                   0                   3
                   1                  10
#---1----|----2----|----3----|----4----|----5----|----6----|----7----|----8----|----9----|---10----|
/FUNCT/3
Foam
#                  X                   Y
                -.75                 1.1
                 -.7                .095
                 -.6                .082
                 -.5                 .07
                 -.4                .059
                 -.3                .044
                 -.2                 .03
                 -.1                .017
                   0                   0
                   1                .017
#---1----|----2----|----3----|----4----|----5----|----6----|----7----|----8----|----9----|---10----|
/FUNCT/4
typic_PULSE_16g
#                  X                   Y
                   0      -6.63432642E-7
           .50000002     -1.574000766E-5
                   1     -1.384084071E-5
                 1.5      1.761201072E-5
           2.0000001     8.8852215024E-5
           2.4999999      2.061065304E-4
                   3     3.7306175301E-4
           3.5000001     5.9349428748E-4
           4.0000002     8.7283325268E-4
           4.4999998       .001216415475
           4.9999999       .001626677523
                 5.5      .0021016042461
           6.0000001      .0026378257131
           6.5000001      .0032403863241
           7.0000002       .003927704256
           7.4999998       .004725899811
           8.0000004      .0056616601131
           8.5000005      .0067590643959
           8.9999996      .0080396502201
           9.4999997      .0095213832273
# ... 381 like lines cut
#---1----|----2----|----3----|----4----|----5----|----6----|----7----|----8----|----9----|---10----|
/FUNCT/5
Foam
#                  X                   Y
                -.75                 1.1
                 -.7                .095
                 -.6                .082
                 -.5                 .07
                 -.4                .059
                 -.3                .044
                 -.2                 .03
                 -.1                .017
                   0                   0
                   1                .017
#---1----|----2----|----3----|----4----|----5----|----6----|----7----|----8----|----9----|---10----|
/FUNCT/6
_LOADING
#                  X                   Y
                   0                   0
         .0099999998          .010285725
                 .02          .026505525
          .029999999         .0506373735
          .039999999           .07556025
          .050000001           .09257175
          .059999999         .1079999925
                 .07            .1214505
          .079999998         .1313407425
          .090000004            .1424175
                  .1             .152703
                 .11           .16259325
                 .12           .17509725
#---1----|----2----|----3----|----4----|----5----|----6----|----7----|----8----|----9----|---10----|
/FUNCT/7
_UNLOADING
#                  X                   Y
                   0                   0
          .059999999                   0
                 .07        .01542854925
          .079999998        .03402194925
          .090000004        .05617582275
                  .1             .081099
                 .11             .116703
                 .12           .17509725
#---1----|----2----|----3----|----4----|----5----|----6----|----7----|----8----|----9----|---10----|
/FUNCT/8
Foam
#                  X                   Y
                -.75                 1.1
                 -.7                .095
                 -.6                .082
                 -.5                 .07
                 -.4                .059
                 -.3                .044
                 -.2                 .03
                 -.1                .017
                   0                   0
                   1                .017
#---1----|----2----|----3----|----4----|----5----|----6----|----7----|----8----|----9----|---10----|
#-  9. SENSORS:
#---1----|----2----|----3----|----4----|----5----|----6----|----7----|----8----|----9----|---10----|
/SENSOR/TIME/1
TIME Sensor
#             Tdelay
                 .02
				 
#---1----|----2----|----3----|----4----|----5----|----6----|----7----|----8----|----9----|---10----|
#- 10. INTERFACES:
#---1----|----2----|----3----|----4----|----5----|----6----|----7----|----8----|----9----|---10----|
/INTER/TYPE2/1
colle_dossier
# Secon_id   Surf_id    Ignore  Spotflag     Level   Isearch      Idel                       Dsearch
         5        16         1         0         0         0         0                             0
/GRNOD/NODE/5
INTER_group_15001139_of_NODE
         4         5         8        10        11        14        20        22        23        25
        27        28        29        30        31        32        34        35        36        37
        38        40        42        44        46        48        49        50        51        52
        60        61        62        63        64        68        69        70        71        73
        74        76        77        78        79        81        82        85        86        87
        88        90        92        93        94        95        96        98        99       100
       101       102       103       104       105       106       107       109       112       113
       114       115       116       119       121       122       123       124       125       126
       127       128       130       133       135       136       137       138       139       140
       141       142       143       144       145       146       147       148       149       150
       151       152       153       154       155       157       159       161       162       163
       164       165       166       168       173       175       176       177       178       179
       180       181       185       187       188       189       190       191       192       193
       194       195       197       198       199       200       201       202       203       204
       205       206       207       208       209       210       211       212       213       218
       220       221       222       223       224       232       233       234       235       236
       237       238       240       241       242       346       347       348       349       350
       351       352       353       354       355       356       357       358       359       360
       361       362       363       364       365       366       367       368       369       370
       371       372       373       374       375       380       382       385       386       387
# ... 231 like lines cut
/SURF/GRSHEL/16
INTER_group_15001140_of_GRSHEL
        15
/GRSHEL/SHEL/15
INTER_group_15001141_of_SHELL4N
      6387      6390      6393      6395      6397      6399      6401      6403      6405      6407
      6409      6411      6413      6415      6417      6419      6421      6423      6425      6427
      6429      6431      6433      6435      6437      6439      6441      6443      6445      6447
      6449      6451      6453      6455      6457      6459      6461      6463      6465      6467
      6469      6471      6473      6475      6477      6479      6481      6483      6485      6487
      6489      6492      6495      6497      6499      6501      6503      6505      6507      6509
      6511      6513      6515      6517      6519      6521      6523      6525      6527      6529
      6531      6533      6535      6537      6539      6541      6542      6545      6546      6547
      6548      6549      6550      6551      6552      6553      6554      6555      6556      6557
      6558      6559      6560      6561      6562      6563      6564      6565      6566      6567
      6568      6569      6570      6571      6572      6573      6574      6575      6576      6577
      6578      6579      6580      6581      6582      6583      6584      6585      6586      6587
      6588      6589      6590      6591      6592      6593      6594      6595      6596      6597
      6598      6599      6600      6601      6602      6603      6604      6605      6606      6607
      6608      6609      6610      6611      6612      6613      6614      6615      6616      6617
      6618      6619      6620      6621      6622      6623      6624      6625      6626      6627
      6628      6629      6630      6631      6632      6635      6636      6637      6638      6639
      6640      6641      6642      6643      6644      6645      6646      6647      6648      6649
      6650      6651      6652      6653      6654      6655      6656      6657      6658      6659
      6660      6661      6662      6663      6664      6665      6666      6667      6668      6669
# ... 48 like lines cut
#---1----|----2----|----3----|----4----|----5----|----6----|----7----|----8----|----9----|---10----|
/INTER/TYPE2/2
assise
# Secon_id   Surf_id    Ignore  Spotflag     Level   Isearch      Idel                       Dsearch
         6        17         0         0         0         0         0                             0
/GRNOD/PART/6
INTER_group_15001140_of_PART
        12
/SURF/SEG/17
INTER_group_15001141_of_SEGMENT
        45     17613     17057     17056     17106
        46     17056     17057     18262     18265
        47     17106     17056     18265     18264
        48     17609     17058     17057     17613
        49     17057     17058     18263     18262
        50     17613     18261     18262     17057
        51     17616     17059     17058     17609
        52     17058     17059     18274     18263
        53     17609     18260     18263     17058
        54     17587     17060     17059     17616
        55     17059     17060     18236     18274
        56     17616     18273     18274     17059
        57     17060     17587     17598     17061
        58     17060     17061     18237     18236
        59     17587     18239     18236     17060
        60     17599     17062     17061     17598
        61     17061     17062     18242     18237
        62     17061     17598     18238     18237
        63     17563     17063     17062     17599
        64     17062     17063     18243     18242
# ... 2930 like lines cut
#---1----|----2----|----3----|----4----|----5----|----6----|----7----|----8----|----9----|---10----|
/INTER/TYPE7/3
Foam_Self
# Secon_id   Main_id      Istf      Ithe      Igap                Ibag      Idel     Icurv      Iadm
        14        18         4         0      1000                   0      1000         0         0
#          Fscalegap             Gap_max             Fpenmax                         Itied
                   0                   0                   0                             0
#              Stmin               Stmax          %mesh_size               dtmin  Irem_gap   Irem_i2
                   1                   0                   0                   0         0         0
#              Stfac                Fric              Gapmin              Tstart               Tstop
                   0                  .2                   1                   0                   0
#      IBC                        Inacti                VisS                VisF              Bumult
       000                             5                   0                   0                   0
#    Ifric    Ifiltr               Xfreq     Iform   sens_ID   fct_IDf             AscaleF   fric_ID
         0         0                   0         2         0         0                   0         0
/GRNOD/SURF/14
INTER_group_15001006_of_SURF
        18
/SURF/PART/ALL/18
INTER_group_15001004_of_PART
        10        14        16
#---1----|----2----|----3----|----4----|----5----|----6----|----7----|----8----|----9----|---10----|
/INTER/TYPE19/15000041
Dummy_Belt
# Secon_id   Main_id      Istf      Ithe      Igap     Iedge      Ibag      Idel     Icurv
  15000988  15000989         4         0      1000         2         0      1000         0
#          Gap_scale             Gap_max
                   0                   0
#              Stmin               Stmax          %mesh_size               dtmin  Irem_gap   Irem_i2
                   1                   0                   0                   0         0         0
#              Stfac                Fric             Gap_min              Tstart               Tstop
                   0                  .2                 .73                   0                   0
#      IBC                        Inacti                VisS                VisF              Bumult
       000                             5                   0                   0                   0
#    Ifric    Ifiltr               Xfreq     Iform   Isensor                                 fric_ID
         0         0                   0         2         0                                       0
/SURF/PART/15000988
INTER_group_15000989_of_PART
  15000280  15000281
/SURF/PART/EXT/15000989
INTER_group_15000990_of_PART
  15000000  15000001  15000002  15000008  15000009  15000010  15000011  15000012  15000013  15000017
  15000018  15000019  15000020  15000021  15000022  15000023  15000024  15000025  15000026  15000027
  15000028  15000029  15000030  15000031  15000032  15000033  15000034  15000035  15000036  15000037
  15000038  15000039  15000040  15000041  15000042  15000043  15000044  15000045  15000046  15000047
  15000048  15000049  15000050  15000051  15000052  15000053  15000054  15000055  15000056  15000057
  15000058  15000059  15000060  15000061  15000062  15000063  15000064  15000065  15000066  15000067
  15000068  15000069  15000070  15000071  15000072  15000073  15000074  15000075  15000076  15000077
  15000078  15000079  15000080  15000081  15000082  15000083  15000084  15000085  15000086  15000087
  15000088  15000089  15000090  15000091  15000092  15000093  15000094  15000095  15000096  15000097
  15000098  15000099  15000100  15000101  15000102  15000103  15000104  15000105  15000106  15000107
  15000108  15000109  15000110  15000111  15000112  15000113  15000114  15000115  15000116  15000117
  15000118  15000119  15000120  15000121  15000122  15000123  15000124  15000125  15000126  15000127
  15000128  15000129  15000156  15000157  15000158  15000159  15000160  15000161  15000162  15000163
  15000164  15000167  15000168  15000169  15000170  15000171  15000172  15000173  15000174  15000175
  15000177  15000178  15000181  15000182  15000183  15000184  15000185  15000186  15000196  15000197
  15000198  15000199  15000200  15000201  15000202  15000203  15000204  15000205  15000206  15000207
  15000208  15000209  15000213  15000214  15000215  15000216  15000217  15000218  15000219  15000220
  15000221  15000222  15000223  15000224  15000225  15000226  15000227  15000279
#---1----|----2----|----3----|----4----|----5----|----6----|----7----|----8----|----9----|---10----|
/INTER/TYPE19/15000042
Dummy_Seat
# Secon_id   Main_id      Istf      Ithe      Igap     Iedge      Ibag      Idel     Icurv
  15000990  15000992         4         0      1000         2         0      1000         0
#          Gap_scale             Gap_max
                   0                   0
#              Stmin               Stmax          %mesh_size               dtmin  Irem_gap   Irem_i2
                   1                   0                   0                   0         0         0
#              Stfac                Fric             Gap_min              Tstart               Tstop
                   0                  .2                 .73                   0                   0
#      IBC                        Inacti                VisS                VisF              Bumult
       000                             5                   0                   0                   0
#    Ifric    Ifiltr               Xfreq     Iform   Isensor                                 fric_ID
         0         0                   0         2         0                                       0
/SURF/PART/EXT/15000990
INTER_group_15000991_of_PART
  15000000  15000001  15000002  15000008  15000009  15000010  15000011  15000012  15000013  15000017
  15000018  15000019  15000020  15000021  15000022  15000023  15000024  15000025  15000026  15000027
  15000028  15000029  15000030  15000031  15000032  15000033  15000034  15000035  15000036  15000037
  15000038  15000039  15000040  15000041  15000042  15000043  15000044  15000045  15000046  15000047
  15000048  15000049  15000050  15000051  15000052  15000053  15000054  15000055  15000056  15000057
  15000058  15000059  15000060  15000061  15000062  15000063  15000064  15000065  15000066  15000067
  15000068  15000069  15000070  15000071  15000072  15000073  15000074  15000075  15000076  15000077
  15000078  15000079  15000080  15000081  15000082  15000083  15000084  15000085  15000086  15000087
  15000088  15000089  15000090  15000091  15000092  15000093  15000094  15000095  15000096  15000097
  15000098  15000099  15000100  15000101  15000102  15000103  15000104  15000105  15000106  15000107
  15000108  15000109  15000110  15000111  15000112  15000113  15000114  15000115  15000116  15000117
  15000118  15000119  15000120  15000121  15000122  15000123  15000124  15000125  15000126  15000127
  15000128  15000129  15000156  15000157  15000158  15000159  15000160  15000161  15000162  15000163
  15000164  15000167  15000168  15000169  15000170  15000171  15000172  15000173  15000174  15000175
  15000177  15000178  15000181  15000182  15000183  15000184  15000185  15000186  15000196  15000197
  15000198  15000199  15000200  15000201  15000202  15000203  15000204  15000205  15000206  15000207
  15000208  15000209  15000213  15000214  15000215  15000216  15000217  15000218  15000219  15000220
  15000221  15000222  15000223  15000224  15000225  15000226  15000227  15000279
/SURF/PART/EXT/15000992
INTER_group_15000993_of_PART
         8        10        11        13        14        15        16        17
#---1----|----2----|----3----|----4----|----5----|----6----|----7----|----8----|----9----|---10----|
#- 11. RIGID BODIES:
#---1----|----2----|----3----|----4----|----5----|----6----|----7----|----8----|----9----|---10----|
/RBODY/1
Recliner
#     RBID     ISENS     NSKEW    ISPHER                MASS   Gnod_id     IKREM      ICOG   Surf_id
      5732         0         0         0                   0         1         0         0         0
#                Jxx                 Jyy                 Jzz
                   0                   0                   0
#                Jxy                 Jyz                 Jxz
                   0                   0                   0
#  Ioptoff               Ifail
         0         0         0
/GRNOD/NODE/1
RBODY_group_369_of_NODE
        33       229       247       263       342       416       451      1013      1028      1571
      1583      2822      2824      4536      4548      4596      4598      4778      4779      5390
      5391      5392      5393      5394      5395      5396      5441      5442      5443      5444
      5445      5446      5447     10682     10884     11052     11540     11547     11969     11980
     13568     13570     13601     13611     15761     15775     15797     15799     16417     16481
     16482     16483     16484     16485     16486     16487     16488     16489     16490     16491
     16492     16493     16494     16495
#---1----|----2----|----3----|----4----|----5----|----6----|----7----|----8----|----9----|---10----|
/RBODY/2
Recliner 2
#     RBID     ISENS     NSKEW    ISPHER                MASS   Gnod_id     IKREM      ICOG   Surf_id
      5733         0         0         0                   0         2         0         0         0
#                Jxx                 Jyy                 Jzz
                   0                   0                   0
#                Jxy                 Jyz                 Jxz
                   0                   0                   0
#  Ioptoff               Ifail
         0         0         0
/GRNOD/NODE/2
RBODY_group_370_of_NODE
        16        45       184       248       267       325       605       607      1090      1092
      3664      3666      3669      3681      4345      4347      4350      4443      4906      4907
      5332      5333      5334      5335      5336      5337      5338      5383      5384      5385
      5386      5387      5388      5389     10681     10927     10982     11068     11715     11721
     11923     11925     12814     12826     12835     12837     15950     15952     15955     15965
     16281     16282     16283     16284     16285     16286     16287     16288     16289     16345
     16346     16347     16348     16349     16350     16351     16352     16353
#---1----|----2----|----3----|----4----|----5----|----6----|----7----|----8----|----9----|---10----|
/RBODY/3
Floor
#     RBID     ISENS     NSKEW    ISPHER                MASS   Gnod_id     IKREM      ICOG   Surf_id
      6310         0         0         0                   0        13         0         0         0
#                Jxx                 Jyy                 Jzz
                   0                   0                   0
#                Jxy                 Jyz                 Jxz
                   0                   0                   0
#  Ioptoff               Ifail
         0         0         0
/GRNOD/GRNOD/13
RBODY_group_15000998_of_GRNOD
        11        12
/GRNOD/PART/11
RBODY_group_15001000_of_PART
         8         9
/GRNOD/NODE/12
RBODY_group_15000999_of_NODE
       243       244       245       246      5734      5735      5736     21112     21113     21114
     21115     21116     21117     21118     21119     21120     21121     21122     21123     21124
     21125     21126     21127     21128     21129     21130     21131     21132     21133     21134
     21135     21136     21137     21138     21139     21140     21141     21142     21143     21144
     21145     21146     21147     21148     21149     21150     21151     21152     21153     21154
     21155     21156     21157     21158     21159     21160     21161     21162     21163     21164
     21165     21166     21167     21168     21169     21170     21171     21172     21173     21174
     21175     21176     21177     21178     21179     21180     21181     21182     21183     21184
     21185     21186     21187     21188     21189     21190     21191     21192     21193     21194
     21195     21196     21197     21198     21199     21200     21201     21202     21203     21204
     21205     21206     21207     21208     21209     21210     21211     21212     21213     21214
     21215     21216     21217     21218     21219     21220     21221     21222     21223     21224
     21225     21226     21227     21228     21229     21230     21231     21232     21233     21234
     21235     21236     21237     21238     21239     21240     21241     21242     21243     21244
     21245     21246     21247     21248     21249     21250     21251     21252     21253     21254
     21255     21256     21257     21258     21259     21260     21261     21262     21263     21264
     21265     21266     21267     21268     21269     21270     21271     21272     21273     21274
     21275     21276     21277     21278     21279     21280     21281     21282     21283     21284
     21285     21286     21287     21288     21289     21290     21291     21292     21293     21294
     21295     21296     21297     21298     21299     21300     21301     21302     21303     21304
# ... 173 like lines cut
#---1----|----2----|----3----|----4----|----5----|----6----|----7----|----8----|----9----|---10----|
/RBODY/15000059
Shoulder_RBody_first_node
#     RBID     ISENS     NSKEW    ISPHER                MASS   Gnod_id     IKREM      ICOG   Surf_id
  15036364         0         0         0                   0  15000540         0         0         0
#                Jxx                 Jyy                 Jzz
                   0                   0                   0
#                Jxy                 Jyz                 Jxz
                   0                   0                   0
#  Ioptoff               Ifail
         0         0         0
/GRNOD/NODE/15000540
Shoulder_RBody_first_node
      5739  15035939  15035940  15035941  15035942  15035943
#---1----|----2----|----3----|----4----|----5----|----6----|----7----|----8----|----9----|---10----|
/RBODY/15000060
Shoulder_RBody_last_node
#     RBID     ISENS     NSKEW    ISPHER                MASS   Gnod_id     IKREM      ICOG   Surf_id
  15036365         0         0         0                   0  15000541         0         0         0
#                Jxx                 Jyy                 Jzz
                   0                   0                   0
#                Jxy                 Jyz                 Jxz
                   0                   0                   0
#  Ioptoff               Ifail
         0         0         0
/GRNOD/NODE/15000541
Shoulder_RBody_last_node
      5740  15036359  15036360  15036361  15036362  15036363
#---1----|----2----|----3----|----4----|----5----|----6----|----7----|----8----|----9----|---10----|
/RBODY/15000061
Lap_RBody_first_node
#     RBID     ISENS     NSKEW    ISPHER                MASS   Gnod_id     IKREM      ICOG   Surf_id
  15036776         0         0         0                   0  15000544         0         0         0
#                Jxx                 Jyy                 Jzz
                   0                   0                   0
#                Jxy                 Jyz                 Jxz
                   0                   0                   0
#  Ioptoff               Ifail
         0         0         0
/GRNOD/NODE/15000544
Lap_RBody_first_node
      5737  15036366  15036367  15036368  15036369  15036370
#---1----|----2----|----3----|----4----|----5----|----6----|----7----|----8----|----9----|---10----|
/RBODY/15000062
Lap_RBody_last_node
#     RBID     ISENS     NSKEW    ISPHER                MASS   Gnod_id     IKREM      ICOG   Surf_id
  15036777         0         0         0                   0  15000545         0         0         0
#                Jxx                 Jyy                 Jzz
                   0                   0                   0
#                Jxy                 Jyz                 Jxz
                   0                   0                   0
#  Ioptoff               Ifail
         0         0         0
/GRNOD/NODE/15000545
Lap_RBody_last_node
      5738  15036771  15036772  15036773  15036774  15036775
#---1----|----2----|----3----|----4----|----5----|----6----|----7----|----8----|----9----|---10----|
#- 12. IMPOSED ACCELERATIONS:
#---1----|----2----|----3----|----4----|----5----|----6----|----7----|----8----|----9----|---10----|
/IMPACC/1
decel pulse
#funct_IDT       Dir   skew_ID sensor_ID  grnod_ID
         4         Y         0         0         4
#           Ascale_x            Fscale_Y              Tstart               Tstop
                   1                   1                   0                   0
/GRNOD/NODE/4
IMPACC_group_15000893_of_NODE
      6310
#---1----|----2----|----3----|----4----|----5----|----6----|----7----|----8----|----9----|---10----|
#- 13. NODE GROUPS:
#---1----|----2----|----3----|----4----|----5----|----6----|----7----|----8----|----9----|---10----|
/GRNOD/NODE/7
Shoulder_RBody_first_node
      5739
#---1----|----2----|----3----|----4----|----5----|----6----|----7----|----8----|----9----|---10----|
/GRNOD/NODE/8
Shoulder_RBody_last_node
      5740
#---1----|----2----|----3----|----4----|----5----|----6----|----7----|----8----|----9----|---10----|
/GRNOD/NODE/9
Lap_RBody_first_node
      5737
#---1----|----2----|----3----|----4----|----5----|----6----|----7----|----8----|----9----|---10----|
/GRNOD/NODE/10
Lap_RBody_last_node
      5738
#---1----|----2----|----3----|----4----|----5----|----6----|----7----|----8----|----9----|---10----|
/GRNOD/PART/15000531
GRNOD DUMMY BELT 15000280
  15000186
#---1----|----2----|----3----|----4----|----5----|----6----|----7----|----8----|----9----|---10----|
/GRNOD/PART/15000535
GRNOD DUMMY BELT 15000280
  15000186
#---1----|----2----|----3----|----4----|----5----|----6----|----7----|----8----|----9----|---10----|
/GRNOD/PART/15000539
GRNOD DUMMY BELT 15000280
  15000186
#---1----|----2----|----3----|----4----|----5----|----6----|----7----|----8----|----9----|---10----|
/GRNOD/PART/15000542
GRNOD BELT 15000280
  15000280
#---1----|----2----|----3----|----4----|----5----|----6----|----7----|----8----|----9----|---10----|
/GRNOD/PART/15000543
GRNOD DUMMY BELT 15000280
  15000186
#---1----|----2----|----3----|----4----|----5----|----6----|----7----|----8----|----9----|---10----|
/GRNOD/PART/15000546
GRNOD BELT 15000281
  15000281
#---1----|----2----|----3----|----4----|----5----|----6----|----7----|----8----|----9----|---10----|
#- 14. SURFACES:
#---1----|----2----|----3----|----4----|----5----|----6----|----7----|----8----|----9----|---10----|
/SURF/PART/EXT/15000899
SURF DUMMY BELT 15000280
  15000186
#---1----|----2----|----3----|----4----|----5----|----6----|----7----|----8----|----9----|---10----|
/SURF/PART/EXT/15000901
SURF DUMMY BELT 15000280
  15000186
#---1----|----2----|----3----|----4----|----5----|----6----|----7----|----8----|----9----|---10----|
/SURF/PART/EXT/15000903
SURF DUMMY BELT 15000280
  15000186
#---1----|----2----|----3----|----4----|----5----|----6----|----7----|----8----|----9----|---10----|
/SURF/PART/EXT/15000904
SURF BELT 15000280
  15000280
#---1----|----2----|----3----|----4----|----5----|----6----|----7----|----8----|----9----|---10----|
/SURF/PART/EXT/15000905
SURF DUMMY BELT 15000280
  15000186
#---1----|----2----|----3----|----4----|----5----|----6----|----7----|----8----|----9----|---10----|
/SURF/PART/EXT/15000906
SURF DUMMY BELT 15000281
  15000171  15000172  15000186  15000196  15000197  15000200  15000201  15000225  15000227
#---1----|----2----|----3----|----4----|----5----|----6----|----7----|----8----|----9----|---10----|
/SURF/PART/15000991
INTER_group_15000992_of_PART
         8        11        13        15        17
#---1----|----2----|----3----|----4----|----5----|----6----|----7----|----8----|----9----|---10----|
#- 15. TIME HISTORIES:
#---1----|----2----|----3----|----4----|----5----|----6----|----7----|----8----|----9----|---10----|
/TH/PART/1
foams
#     var1      var2      var3      var4      var5      var6      var7      var8      var9     var10
DEF       
#     Obj1      Obj2      Obj3      Obj4      Obj5      Obj6      Obj7      Obj8      Obj9     Obj10
        14        10
#---1----|----2----|----3----|----4----|----5----|----6----|----7----|----8----|----9----|---10----|
/TH/PART/2
All
#     var1      var2      var3      var4      var5      var6      var7      var8      var9     var10
DEF       
#     Obj1      Obj2      Obj3      Obj4      Obj5      Obj6      Obj7      Obj8      Obj9     Obj10
         4         5         6         7
#---1----|----2----|----3----|----4----|----5----|----6----|----7----|----8----|----9----|---10----|
/TH/PART/3
All
#     var1      var2      var3      var4      var5      var6      var7      var8      var9     var10
DEF       
#     Obj1      Obj2      Obj3      Obj4      Obj5      Obj6      Obj7      Obj8      Obj9     Obj10
         8         9
#---1----|----2----|----3----|----4----|----5----|----6----|----7----|----8----|----9----|---10----|
/TH/PART/4
All
#     var1      var2      var3      var4      var5      var6      var7      var8      var9     var10
DEF       
#     Obj1      Obj2      Obj3      Obj4      Obj5      Obj6      Obj7      Obj8      Obj9     Obj10
        12        13
#---1----|----2----|----3----|----4----|----5----|----6----|----7----|----8----|----9----|---10----|
/TH/PART/5
foams
#     var1      var2      var3      var4      var5      var6      var7      var8      var9     var10
DEF       
#     Obj1      Obj2      Obj3      Obj4      Obj5      Obj6      Obj7      Obj8      Obj9     Obj10
        16
#---1----|----2----|----3----|----4----|----5----|----6----|----7----|----8----|----9----|---10----|
/TH/INTER/6
TH INTER
#     var1      var2      var3      var4      var5      var6      var7      var8      var9     var10
DEF       
#     Obj1      Obj2      Obj3      Obj4      Obj5      Obj6      Obj7      Obj8      Obj9     Obj10
         3  15000041  15000042
#---1----|----2----|----3----|----4----|----5----|----6----|----7----|----8----|----9----|---10----|
/END
#---1----|----2----|----3----|----4----|----5----|----6----|----7----|----8----|----9----|---10----|
