#RADIOSS STARTER
#---1----|----2----|----3----|----4----|----5----|----6----|----7----|----8----|----9----|---10----|
# Spring_with_Pretension ("Model")
# Copyright (C) 2024 Altair Engineering Inc. ("Holder")
# Model is licensed by Holder under CC BY-NC 4.0
# (https://creativecommons.org/licenses/by-nc/4.0/legalcode).  
#---1----|----2----|----3----|----4----|----5----|----6----|----7----|----8----|----9----|---10----|
/BEGIN
Spring_with_Pretension                                                          
      2022         0
                  kg                  mm                  ms
                  kg                  mm                  ms
#---1----|----2----|----3----|----4----|----5----|----6----|----7----|----8----|----9----|---10----|
#-  1. CONTROL CARDS:
#---1----|----2----|----3----|----4----|----5----|----6----|----7----|----8----|----9----|---10----|
/TITLE
Spring_with_Pretension_and_failure
#---1----|----2----|----3----|----4----|----5----|----6----|----7----|----8----|----9----|---10----|
#-  2. MATERIALS:
#---1----|----2----|----3----|----4----|----5----|----6----|----7----|----8----|----9----|---10----|
/MAT/PLAS_JOHNS/1
Mild_steel
#              RHO_I
             7.85E-6                   0
#                  E                  Nu     Iflag
                 210                  .3         0
#                  a                   b                   n           EPS_p_max            SIG_max0
                 .35                  .5                  .5                   0                   0
#                  c           EPS_DOT_0       ICC   Fsmooth               F_cut               Chard
                   0                   0         0         0                   0                   0
#                  m              T_melt              rhoC_p                 T_r
                   0                   0                   0                   0
#---1----|----2----|----3----|----4----|----5----|----6----|----7----|----8----|----9----|---10----|
#-  3. NODES:
#---1----|----2----|----3----|----4----|----5----|----6----|----7----|----8----|----9----|---10----|
/NODE
         5                   0                   0                   0
         6            9.090909                   0                   0
         7           18.181818                   0                   0
         8           27.272727                   0                   0
         9           36.363636                   0                   0
        10           45.454545                   0                   0
        11           54.545455                   0                   0
        12           63.636364                   0                   0
        13           72.727273                   0                   0
        14           81.818182                   0                   0
        15           90.909091                   0                   0
        16                 100                   0                   0
        17                 100            9.090909                   0
        18                 100           18.181818                   0
        19                 100           27.272727                   0
        20                 100           36.363636                   0
        21                 100           45.454545                   0
        22                 100           54.545455                   0
        23                 100           63.636364                   0
        24                 100           72.727273                   0
# ... 272 like lines cut
#---1----|----2----|----3----|----4----|----5----|----6----|----7----|----8----|----9----|---10----|
#-  4. BOUNDARY CONDITIONS:
#---1----|----2----|----3----|----4----|----5----|----6----|----7----|----8----|----9----|---10----|
/BCS/1
new_boundary_condition
#  Tra rot   skew_ID  grnod_ID
   111 111         0        12
/GRNOD/NODE/12
BCS_group_12_of_NODE
         5        16        27        38
#---1----|----2----|----3----|----4----|----5----|----6----|----7----|----8----|----9----|---10----|
/BCS/2
Only_Translation_in_Z_direction_allowed
#  Tra rot   skew_ID  grnod_ID
   110 111         0        13
/GRNOD/NODE/13
BCS_group_13_of_NODE
       149       160       171       182
#---1----|----2----|----3----|----4----|----5----|----6----|----7----|----8----|----9----|---10----|
#-  5. PARTS:
#---1----|----2----|----3----|----4----|----5----|----6----|----7----|----8----|----9----|---10----|
/PART/1
Part_1
         1         1         0
#---1----|----2----|----3----|----4----|----5----|----6----|----7----|----8----|----9----|---10----|
# SHELL elements of /PART/1/Part_1:
#---1----|----2----|----3----|----4----|----5----|----6----|----7----|----8----|----9----|---10----|
/SHELL/1
         1        64        67        68        63
         2        63        68        59        60
         3        67        51        52        68
         4        68        52        53        59
         5        65        69        67        64
         6        69        50        51        67
         7        30        31        70        66
         8        66        70        69        65
         9        31        32        49        70
        10        70        49        50        69
        11        24        71        73        23
        12        23        73        62        22
        13        71        72        74        73
        14        73        74        61        62
        15        72        64        63        74
        16        74        63        60        61
        17        27        28        75        26
        18        26        75        76        25
        19        25        76        71        24
        20        66        77        29        30
# ... 100 like lines cut
#---1----|----2----|----3----|----4----|----5----|----6----|----7----|----8----|----9----|---10----|
/PART/2
Part_2
         1         1         0
#---1----|----2----|----3----|----4----|----5----|----6----|----7----|----8----|----9----|---10----|
# SHELL elements of /PART/2/Part_2:
#---1----|----2----|----3----|----4----|----5----|----6----|----7----|----8----|----9----|---10----|
/SHELL/2
       122       208       211       212       207
       123       207       212       203       204
       124       211       195       196       212
       125       212       196       197       203
       126       209       213       211       208
       127       213       194       195       211
       128       174       175       214       210
       129       210       214       213       209
       130       175       176       193       214
       131       214       193       194       213
       132       168       215       217       167
       133       167       217       206       166
       134       215       216       218       217
       135       217       218       205       206
       136       216       208       207       218
       137       218       207       204       205
       138       171       172       219       170
       139       170       219       220       169
       140       169       220       215       168
       141       210       221       173       174
# ... 100 like lines cut
#---1----|----2----|----3----|----4----|----5----|----6----|----7----|----8----|----9----|---10----|
/PART/4
new_part_Spring
         2         0         5
#---1----|----2----|----3----|----4----|----5----|----6----|----7----|----8----|----9----|---10----|
# SPRING elements of /PART/4/new_part_Spring:
#---1----|----2----|----3----|----4----|----5----|----6----|----7----|----8----|----9----|---10----|
/SPRING/4
         1       293       294                                        
#---1----|----2----|----3----|----4----|----5----|----6----|----7----|----8----|----9----|---10----|
#-  6. SUBSETS:
#---1----|----2----|----3----|----4----|----5----|----6----|----7----|----8----|----9----|---10----|
/SUBSET/5
new_part_Spring
#---1----|----2----|----3----|----4----|----5----|----6----|----7----|----8----|----9----|---10----|
#-  7. GEOMETRICAL SETS:
#---1----|----2----|----3----|----4----|----5----|----6----|----7----|----8----|----9----|---10----|
/PROP/SHELL/1
Shell_5mm
#   Ishell    Ismstr     Ish3n    Idrill                            P_thick_fail
        24         0         0         0                                       0
#                 hm                  hf                  hr                  dm                  dn
                   0                   0                   0                   0                   0
#        N   Istrain               Thick              Ashear              Ithick     Iplas
         5         0                  15                   0                   1         1
#---1----|----2----|----3----|----4----|----5----|----6----|----7----|----8----|----9----|---10----|
/PROP/SPR_BEAM/2
SPRI_13_Screw_with_pretension
#               Mass             Inertia   skew_ID   sens_ID    Isflag     Ifail     Ileng    Ifail2
                .002                 .02         0         0         0         0         0         0
#              KTens               CTens               ATens               BTens               DTens
                 100                   0                   0                   0                   0
#  fct_ID1     HTens   fct_ID2   fct_ID3   fct_ID4                 delta_minTens       delta_maxTens
         2         0         0         0         0                            -4                   4
#                  F                   E              Ascale             Hscalex
                   0                   0                   0                   0
#              KTens               CTens               ATens               BTens               DTens
                 100                   0                   0                   0                   0
#  fct_ID1     HTens   fct_ID2   fct_ID3   fct_ID4                 delta_minTens       delta_maxTens
         0         0         0         0         0                             0                   0
#                  F                   E              Ascale             Hscalex
                   0                   0                   0                   0
#              KTens               CTens               ATens               BTens               DTens
                 100                   0                   0                   0                   0
#  fct_ID1     HTens   fct_ID2   fct_ID3   fct_ID4                 delta_minTens       delta_maxTens
         0         0         0         0         0                             0                   0
#                  F                   E              Ascale             Hscalex
                   0                   0                   0                   0
#                  K                   C                   A                   B                   D
                1000                   0                   0                   0                   0
#       N1         H        N2        N3        N4                     theta_min           theta_max
         0         0         0         0         0                             0                   0
#                  F                   E              Ascale             Hscalex
                   0                   0                   0                   0
#                  K                   C                   A                   B                   D
                1000                   0                   0                   0                   0
#       N1         H        N2        N3        N4                     theta_min           theta_max
         0         0         0         0         0                             0                   0
#                  F                   E              Ascale             Hscalex
                   0                   0                   0                   0
#                  K                   C                   A                   B                   D
                1000                   0                   0                   0                   0
#       N1         H        N2        N3        N4                     theta_min           theta_max
         0         0         0         0         0                             0                   0
#                  F                   E              Ascale             Hscalex
                   0                   0                   0                   0
#                 V0              Omega0                Fcut   Fsmooth
                   0                   0                   0         0
#                  C                   n               alpha                beta
                   0                   0                   0                   0
                   0                   0                   0                   0
                   0                   0                   0                   0
                   0                   0                   0                   0
                   0                   0                   0                   0
                   0                   0                   0                   0
#---1----|----2----|----3----|----4----|----5----|----6----|----7----|----8----|----9----|---10----|
#-  8. FUNCTIONS:
#---1----|----2----|----3----|----4----|----5----|----6----|----7----|----8----|----9----|---10----|
/FUNCT/2
Pretension_function
#                  X                   Y
                  -3                   0
                   0                  10
                   3                 100
#---1----|----2----|----3----|----4----|----5----|----6----|----7----|----8----|----9----|---10----|
/FUNCT/3
New FUNCT 3
#                  X                   Y
                   0                   0
                   5                   0
                  20                  20
#---1----|----2----|----3----|----4----|----5----|----6----|----7----|----8----|----9----|---10----|
#-  9. RIGID BODIES:
#---1----|----2----|----3----|----4----|----5----|----6----|----7----|----8----|----9----|---10----|
/RBODY/295
new_rigid_body_upper
#     RBID     ISENS     NSKEW    ISPHER                MASS   Gnod_id     IKREM      ICOG   Surf_id
       295         0         0         0                 .01         7         0         0         0
#                Jxx                 Jyy                 Jzz
                  50                  50                  50
#                Jxy                 Jyz                 Jxz
                  50                  50                  50
#  Ioptoff               Ifail
         0         0         0
/GRNOD/NODE/7
RBODY_group_7_of_NODE
       197       198       247       289       293
#---1----|----2----|----3----|----4----|----5----|----6----|----7----|----8----|----9----|---10----|
/RBODY/296
new_rigid_body_lower
#     RBID     ISENS     NSKEW    ISPHER                MASS   Gnod_id     IKREM      ICOG   Surf_id
       296         0         0         0                 .01         8         0         0         0
#                Jxx                 Jyy                 Jzz
                  50                  50                  50
#                Jxy                 Jyz                 Jxz
                  50                  50                  50
#  Ioptoff               Ifail
         0         0         0
/GRNOD/NODE/8
RBODY_group_8_of_NODE
        53        54       103       145       294
#---1----|----2----|----3----|----4----|----5----|----6----|----7----|----8----|----9----|---10----|
#- 10. IMPOSED DISPLACEMENTS:
#---1----|----2----|----3----|----4----|----5----|----6----|----7----|----8----|----9----|---10----|
/IMPDISP/1
Imposed_displacement_in_Z_direction_after 5ms
#   Ifunct       DIR     Iskew   Isensor   Gnod_id     Frame     Icoor
         3         Z         0         0        14         0         0
#            Scale_x             Scale_y              Tstart               Tstop
                   1                   1                   0                   0
/GRNOD/NODE/14
IMPDISP_group_14_of_NODE
       149       160       171       182
#---1----|----2----|----3----|----4----|----5----|----6----|----7----|----8----|----9----|---10----|
#- 11. NODE GROUPS:
#---1----|----2----|----3----|----4----|----5----|----6----|----7----|----8----|----9----|---10----|
/GRNOD/NODE/1
rigid242nodeset
        53        54       103       145       197       198       247       289
#---1----|----2----|----3----|----4----|----5----|----6----|----7----|----8----|----9----|---10----|
/GRNOD/NODE/2
RBODY_group_2_of_NODE
        53        54       103       145       197       198       247       289
#---1----|----2----|----3----|----4----|----5----|----6----|----7----|----8----|----9----|---10----|
/GRNOD/NODE/3
BCS_group_3_of_NODE
         5        16        27        38
#---1----|----2----|----3----|----4----|----5----|----6----|----7----|----8----|----9----|---10----|
/GRNOD/NODE/5
RBODY_group_5_of_NODE
       197       198       247       289
#---1----|----2----|----3----|----4----|----5----|----6----|----7----|----8----|----9----|---10----|
/GRNOD/NODE/6
RBODY_group_6_of_NODE
        53        54       103       145
#---1----|----2----|----3----|----4----|----5----|----6----|----7----|----8----|----9----|---10----|
/GRNOD/NODE/9
BCS_group_9_of_NODE
         5        16        27        38       149       160       171       182
#---1----|----2----|----3----|----4----|----5----|----6----|----7----|----8----|----9----|---10----|
/GRNOD/SURF/11
INTER_group_11_of_SURF
        10
#---1----|----2----|----3----|----4----|----5----|----6----|----7----|----8----|----9----|---10----|
#- 12. SURFACES:
#---1----|----2----|----3----|----4----|----5----|----6----|----7----|----8----|----9----|---10----|
/SURF/PART/10
INTER_group_10_of_PART
         1         2
#---1----|----2----|----3----|----4----|----5----|----6----|----7----|----8----|----9----|---10----|
#- 13. TIME HISTORIES:
#---1----|----2----|----3----|----4----|----5----|----6----|----7----|----8----|----9----|---10----|
/TH/RBODY/1
new_rigid_body_upper
#     var1      var2      var3      var4      var5      var6      var7      var8      var9     var10
DEF       
#     Obj1      Obj2      Obj3      Obj4      Obj5      Obj6      Obj7      Obj8      Obj9     Obj10
       295
#---1----|----2----|----3----|----4----|----5----|----6----|----7----|----8----|----9----|---10----|
/TH/NODE/2
new_rigid_body_upper
#     var1      var2      var3      var4      var5      var6      var7      var8      var9     var10
DEF       
#    NODid     Iskew                                           NODname
       295         0new_rigid_body_upper                                                            
#---1----|----2----|----3----|----4----|----5----|----6----|----7----|----8----|----9----|---10----|
/TH/RBODY/3
new_rigid_body_lower
#     var1      var2      var3      var4      var5      var6      var7      var8      var9     var10
DEF       
#     Obj1      Obj2      Obj3      Obj4      Obj5      Obj6      Obj7      Obj8      Obj9     Obj10
       296
#---1----|----2----|----3----|----4----|----5----|----6----|----7----|----8----|----9----|---10----|
/TH/NODE/4
new_rigid_body_lower
#     var1      var2      var3      var4      var5      var6      var7      var8      var9     var10
DEF       
#    NODid     Iskew                                           NODname
       296         0new_rigid_body_lower                                                            
#---1----|----2----|----3----|----4----|----5----|----6----|----7----|----8----|----9----|---10----|
/TH/SPRING/5
New TH 5
#     var1      var2      var3      var4      var5      var6      var7      var8      var9     var10
DEF       
#     Elid                                                      Elname
         1          New_TH_Spring_[OBJECT]                                                          
#---1----|----2----|----3----|----4----|----5----|----6----|----7----|----8----|----9----|---10----|
/END
#---1----|----2----|----3----|----4----|----5----|----6----|----7----|----8----|----9----|---10----|
