#RADIOSS STARTER
#--------------------------------------------------------------------------------------------------|
# <example_H395_sled> ("Model")
# Copyright (C) <2005>-<2025> Altair Engineering Inc. ("Holder")
# Model is licensed by Holder under CC BY-NC 4.0
# (<https://creativecommons.org/licenses/by-nc/4.0/legalcode).>
#
#---1----|----2----|----3----|----4----|----5----|----6----|----7----|----8----|----9----|---10----|
/BEGIN
sled_H395_2023_2                                                                
      2023         0
                  kg                  mm                  ms
                  kg                  mm                  ms
#---1----|----2----|----3----|----4----|----5----|----6----|----7----|----8----|----9----|---10----|
#-  1. CONTROL CARDS:
#---1----|----2----|----3----|----4----|----5----|----6----|----7----|----8----|----9----|---10----|
/TITLE
sled H395
#include RG_Articulated_Hybrid_III_95TH_0000.rad
#---1----|----2----|----3----|----4----|----5----|----6----|----7----|----8----|----9----|---10----|
#-  2. MATERIALS:
#---1----|----2----|----3----|----4----|----5----|----6----|----7----|----8----|----9----|---10----|
/MAT/PLAS_JOHNS/1
Seat support
#              RHO_I
              7.9E-6                   0
#                  E                  Nu     Iflag
                 210                  .3         0
#                  a                   b                   n           EPS_p_max            SIG_max0
                  .4                 .45                  .6                   0                   0
#                  c           EPS_DOT_0       ICC   Fsmooth               F_cut               Chard
                   0                   0         0         0                   0                   0
#                  m              T_melt              rhoC_p                 T_r
                   0                   0                   0                   0
#---1----|----2----|----3----|----4----|----5----|----6----|----7----|----8----|----9----|---10----|
/MAT/PLAS_JOHNS/2
lap belt anchorage
#              RHO_I
              7.9E-6                   0
#                  E                  Nu     Iflag
                 210                  .3         0
#                  a                   b                   n           EPS_p_max            SIG_max0
                 200                 450                  .5                1E30                 425
#                  c           EPS_DOT_0       ICC   Fsmooth               F_cut               Chard
                   0                   0         0         0                   0                   0
#                  m              T_melt              rhoC_p                 T_r
                   0                   0                   0                   0
#---1----|----2----|----3----|----4----|----5----|----6----|----7----|----8----|----9----|---10----|
/MAT/PLAS_JOHNS/3
floor
#              RHO_I
              7.9E-6                   0
#                  E                  Nu     Iflag
                 205                  .3         0
#                  a                   b                   n           EPS_p_max            SIG_max0
                 200                 450                  .5                1E30                 425
#                  c           EPS_DOT_0       ICC   Fsmooth               F_cut               Chard
                   0                   0         0         0                   0                   0
#                  m              T_melt              rhoC_p                 T_r
                   0                   0                   0                   0
#---1----|----2----|----3----|----4----|----5----|----6----|----7----|----8----|----9----|---10----|
/MAT/PLAS_JOHNS/4
anchorage
#              RHO_I
              7.9E-6                   0
#                  E                  Nu     Iflag
                 210                  .3         0
#                  a                   b                   n           EPS_p_max            SIG_max0
                 200                 450                  .5                1E30                 425
#                  c           EPS_DOT_0       ICC   Fsmooth               F_cut               Chard
                   0                   0         0         0                   0                   0
#                  m              T_melt              rhoC_p                 T_r
                   0                   0                   0                   0
#---1----|----2----|----3----|----4----|----5----|----6----|----7----|----8----|----9----|---10----|
/MAT/FOAM_PLAS/5
seat foam
#              RHO_I
                1E-7                   0
#                  E        Ka  func_IDf          Fscalecurv
                .015         0         3                .001
#                 P0                 Phi             Gamma_0
                   0                   0                   0
#                  A                   B                   C
                   0                   0                   0
#---1----|----2----|----3----|----4----|----5----|----6----|----7----|----8----|----9----|---10----|
/MAT/FABRI/6
seat tissue
#              RHO_I               RHO_O
                2E-7                   0
#                E11                 E22                NU12
                  .2                  .2                  .3
#                G12                 G23                 G31
                .076                .076                .076
#                R_E                              ZEROSTRESS          FSCALE_POR   SENS_ID
                .001                                       0                   0         0
#---1----|----2----|----3----|----4----|----5----|----6----|----7----|----8----|----9----|---10----|
/MAT/PLAS_JOHNS/7
Seat support
#              RHO_I
              7.9E-6                   0
#                  E                  Nu     Iflag
                 210                  .3         0
#                  a                   b                   n           EPS_p_max            SIG_max0
                  .4                 .45                  .6                   0                   0
#                  c           EPS_DOT_0       ICC   Fsmooth               F_cut               Chard
                   0                   0         0         0                   0                   0
#                  m              T_melt              rhoC_p                 T_r
                   0                   0                   0                   0
#---1----|----2----|----3----|----4----|----5----|----6----|----7----|----8----|----9----|---10----|
/MAT/FOAM_PLAS/8
seat foam
#              RHO_I
                1E-7                   0
#                  E        Ka  func_IDf          Fscalecurv
                .015         0         5                .001
#                 P0                 Phi             Gamma_0
                   0                   0                   0
#                  A                   B                   C
                   0                   0                   0
#---1----|----2----|----3----|----4----|----5----|----6----|----7----|----8----|----9----|---10----|
/MAT/FABRI/9
seat tissue
#              RHO_I               RHO_O
                2E-7                   0
#                E11                 E22                NU12
                  .2                  .2                  .3
#                G12                 G23                 G31
                .076                .076                .076
#                R_E                              ZEROSTRESS          FSCALE_POR   SENS_ID
                .001                                       0                   0         0
#---1----|----2----|----3----|----4----|----5----|----6----|----7----|----8----|----9----|---10----|
/MAT/LAW65/10
2D__BELT
#              RHO_I
            1.098E-6                   0
#                 E0                  NU             EPS_max
                  60                  .3                   0
#    Nrate   Fsmooth                Fcut
         1         0                   0
#FUNC_IDld FUNC_IDul       FSCALESTRESS                 EPS
         6         7                  10                   0
#---1----|----2----|----3----|----4----|----5----|----6----|----7----|----8----|----9----|---10----|
/MAT/LAW65/11
2D_SHOULDER_BELT
#              RHO_I
            1.098E-6                   0
#                 E0                  NU             EPS_max
                  60                  .3                   0
#    Nrate   Fsmooth                Fcut
         1         0                   0
#FUNC_IDld FUNC_IDul       FSCALESTRESS                 EPS
         6         7                  10                   0
#---1----|----2----|----3----|----4----|----5----|----6----|----7----|----8----|----9----|---10----|
/MAT/FABRI/12
2D Belt
#              RHO_I               RHO_O
                2E-6                   0
#                E11                 E22                NU12
                 2.5                 2.5                  .1
#                G12                 G23                 G31
                 1.2                 1.2                 1.2
#                R_E                              ZEROSTRESS          FSCALE_POR   SENS_ID
                  .1                                       0                   0         0
#---1----|----2----|----3----|----4----|----5----|----6----|----7----|----8----|----9----|---10----|
/MAT/FABRI/13
2D Belt
#              RHO_I               RHO_O
                2E-6                   0
#                E11                 E22                NU12
                 2.5                 2.5                  .1
#                G12                 G23                 G31
                 1.2                 1.2                 1.2
#                R_E                              ZEROSTRESS          FSCALE_POR   SENS_ID
                  .1                                       0                   0         0
#---1----|----2----|----3----|----4----|----5----|----6----|----7----|----8----|----9----|---10----|
/MAT/FABRI/14
2D Belt
#              RHO_I               RHO_O
                2E-6                   0
#                E11                 E22                NU12
                 2.5                 2.5                  .1
#                G12                 G23                 G31
                 1.2                 1.2                 1.2
#                R_E                              ZEROSTRESS          FSCALE_POR   SENS_ID
                  .1                                       0                   0         0
#---1----|----2----|----3----|----4----|----5----|----6----|----7----|----8----|----9----|---10----|
/MAT/FABRI/15
2D Belt
#              RHO_I               RHO_O
                2E-6                   0
#                E11                 E22                NU12
                 2.5                 2.5                  .1
#                G12                 G23                 G31
                 1.2                 1.2                 1.2
#                R_E                              ZEROSTRESS          FSCALE_POR   SENS_ID
                  .1                                       0                   0         0
#---1----|----2----|----3----|----4----|----5----|----6----|----7----|----8----|----9----|---10----|
#-  3. NODES:
#---1----|----2----|----3----|----4----|----5----|----6----|----7----|----8----|----9----|---10----|
/NODE
         1     -3.717040401949    -601.54834725132     528.14798814489
         2     -3.717040401949    -351.54834725132     528.14798814489
         3     -3.717040401949    -851.54834725132     528.14798814489
         4     32.094988098671    -726.54834725132    731.248094230065
         5     32.094988098671    -601.54834725132    731.248094230065
         6     -3.717040401949    -726.54834725132     528.14798814489
         7     32.094988098671    -851.54834725132    731.248094230065
         8    -39.529068902673    -726.54834725132    325.047882059742
         9    -39.529068902673    -851.54834725132    325.047882059742
        10    -39.529068902673    -601.54834725132    325.047882059742
        11    -39.529068902673    -476.54834725132    325.047882059742
        12     -3.717040401949    -476.54834725132     528.14798814489
        13    -39.529068902673    -351.54834725132    325.047882059742
        14     32.094988098671    -476.54834725132    731.248094230065
        15     32.094988098671    -351.54834725132    731.248094230065
        16    -163.64297262022    -851.54834725132    124.685184157916
        17     -534.0261003434    -351.54834725132    183.348108548001
        18    -163.64297262022    -351.54834725132    124.685184157915
        19     -534.0261003434    -851.54834725132    183.348108548001
        20    -21.623054652261    -414.04834725132     426.59793510232
# ... 22040 like lines cut
#---1----|----2----|----3----|----4----|----5----|----6----|----7----|----8----|----9----|---10----|
#-  4. BOUNDARY CONDITIONS:
#---1----|----2----|----3----|----4----|----5----|----6----|----7----|----8----|----9----|---10----|
/BCS/1
Floor
#  Tra rot   skew_ID  grnod_ID
   011 111         0         3
/GRNOD/NODE/3
BCS_group_342_of_NODE
      6310
#---1----|----2----|----3----|----4----|----5----|----6----|----7----|----8----|----9----|---10----|
#-  5. PARTS:
#---1----|----2----|----3----|----4----|----5----|----6----|----7----|----8----|----9----|---10----|
/PART/1
Backseat plate
         1         1         2
#---1----|----2----|----3----|----4----|----5----|----6----|----7----|----8----|----9----|---10----|
# SHELL elements of /PART/1/Backseat plate:
#---1----|----2----|----3----|----4----|----5----|----6----|----7----|----8----|----9----|---10----|
/SHELL/1
         1       150      1229      1228      1232
         2       348      1230      1228      1229
         3       346      1231      1228      1230
         4       347      1232      1228      1231
         5       198      1234      1233      1237
         6       501      1235      1233      1234
         7       537      1236      1233      1235
         8       538      1237      1233      1236
         9       197      1239      1238      1241
        10       538      1236      1238      1239
        11       537      1240      1238      1236
        12       536      1241      1238      1240
        13       199      1243      1242      1245
        14       536      1240      1242      1243
        15       537      1244      1242      1240
        16       526      1245      1242      1244
        17        37      1247      1246      1248
        18       526      1244      1246      1247
        19       537      1235      1246      1244
        20       501      1248      1246      1235
# ... 2388 like lines cut
#---1----|----2----|----3----|----4----|----5----|----6----|----7----|----8----|----9----|---10----|
/PART/2
Feet
         2         1         2
#---1----|----2----|----3----|----4----|----5----|----6----|----7----|----8----|----9----|---10----|
# BEAM elements of /PART/2/Feet:
#---1----|----2----|----3----|----4----|----5----|----6----|----7----|----8----|----9----|---10----|
/BEAM/2
     23753       246       250        19
     23754       248       244        16
     23755       249       245        17
     23756       247       243        18
#---1----|----2----|----3----|----4----|----5----|----6----|----7----|----8----|----9----|---10----|
/PART/3
Backseat frame
         3         1         2
#---1----|----2----|----3----|----4----|----5----|----6----|----7----|----8----|----9----|---10----|
# SHELL elements of /PART/3/Backseat frame:
#---1----|----2----|----3----|----4----|----5----|----6----|----7----|----8----|----9----|---10----|
/SHELL/3
        69       226      1292      1291      1295
        70       411      1293      1291      1292
        71       409      1294      1291      1293
        72       410      1295      1291      1294
        74       410      1294      1296      1297
        75       409      1298      1296      1294
       177       160      1389      1388      1392
       178       572      1390      1388      1389
       179       571      1391      1388      1390
       180       563      1392      1388      1391
       189         6      1402      1401      1403
       190       544      1399      1401      1402
       191       571      1390      1401      1399
       192       572      1403      1401      1390
       237       110      1440      1439      1442
       238       497      1437      1439      1440
       239       495      1441      1439      1437
       240       496      1442      1439      1441
       241        39      1444      1443      1445
       242       496      1441      1443      1444
# ... 3446 like lines cut
#---1----|----2----|----3----|----4----|----5----|----6----|----7----|----8----|----9----|---10----|
/PART/4
belt anchorage
         4         2         1
#---1----|----2----|----3----|----4----|----5----|----6----|----7----|----8----|----9----|---10----|
# TRUSS elements of /PART/4/belt anchorage:
#---1----|----2----|----3----|----4----|----5----|----6----|----7----|----8----|----9----|---10----|
/TRUSS/4
     23751      5738      5735
     23752      5734      5741
#---1----|----2----|----3----|----4----|----5----|----6----|----7----|----8----|----9----|---10----|
/PART/5
Belt pulley
         5         0         1
#---1----|----2----|----3----|----4----|----5----|----6----|----7----|----8----|----9----|---10----|
# SPRING elements of /PART/5/Belt pulley:
#---1----|----2----|----3----|----4----|----5----|----6----|----7----|----8----|----9----|---10----|
/SPRING/5
     23760      5739      5741      5737                              
     23761      5740      5736      5743                              
#---1----|----2----|----3----|----4----|----5----|----6----|----7----|----8----|----9----|---10----|
/PART/6
Limiter
         6         0         1
#---1----|----2----|----3----|----4----|----5----|----6----|----7----|----8----|----9----|---10----|
# SPRING elements of /PART/6/Limiter:
#---1----|----2----|----3----|----4----|----5----|----6----|----7----|----8----|----9----|---10----|
/SPRING/6
     23762      5742      5743                                        
#---1----|----2----|----3----|----4----|----5----|----6----|----7----|----8----|----9----|---10----|
/PART/7
Pretensionner
         7         0         1
#---1----|----2----|----3----|----4----|----5----|----6----|----7----|----8----|----9----|---10----|
# SPRING elements of /PART/7/Pretensionner:
#---1----|----2----|----3----|----4----|----5----|----6----|----7----|----8----|----9----|---10----|
/SPRING/7
     23763      5735      5742                                        
#---1----|----2----|----3----|----4----|----5----|----6----|----7----|----8----|----9----|---10----|
/PART/8
Floor
         8         3         3
#---1----|----2----|----3----|----4----|----5----|----6----|----7----|----8----|----9----|---10----|
# SHELL elements of /PART/8/Floor:
#---1----|----2----|----3----|----4----|----5----|----6----|----7----|----8----|----9----|---10----|
/SHELL/8
      5875      5757      5828      5827      5831
      5876      5791      5829      5827      5828
      5877      5787      5830      5827      5829
      5878      5790      5831      5827      5830
      5879      5760      5833      5832      5835
      5880      5790      5830      5832      5833
      5881      5787      5834      5832      5830
      5882      5789      5835      5832      5834
      5883      5763      5837      5836      5839
      5884      5789      5834      5836      5837
      5885      5787      5838      5836      5834
      5886      5788      5839      5836      5838
      5887      5754      5841      5840      5842
      5888      5788      5838      5840      5841
      5889      5787      5829      5840      5838
      5890      5791      5842      5840      5829
      5891      5767      5844      5843      5847
      5892      5786      5845      5843      5844
      5893      5784      5846      5843      5845
      5894      5773      5847      5843      5846
# ... 492 like lines cut
#---1----|----2----|----3----|----4----|----5----|----6----|----7----|----8----|----9----|---10----|
/PART/9
Seat belt anchorage point
         9         4         1
#---1----|----2----|----3----|----4----|----5----|----6----|----7----|----8----|----9----|---10----|
# BEAM elements of /PART/9/Seat belt anchorage point:
#---1----|----2----|----3----|----4----|----5----|----6----|----7----|----8----|----9----|---10----|
/BEAM/9
     23757      6307      5744      6309
     23758      5745      6308      6309
     23759      6308      6309      5745
#---1----|----2----|----3----|----4----|----5----|----6----|----7----|----8----|----9----|---10----|
/PART/10
back rest cushion
        10         5         2
#---1----|----2----|----3----|----4----|----5----|----6----|----7----|----8----|----9----|---10----|
# BRICK elements of /PART/10/back rest cushion:
#---1----|----2----|----3----|----4----|----5----|----6----|----7----|----8----|----9----|---10----|
/BRICK/10
     17251      6444      6447      6449      6443      7039      7040      7041      7042
     17252      6443      6449      6450      6442      7042      7041      7043      7044
     17253      6442      6450      6438      6439      7044      7043      7045      7046
     17254      6429      6451      6448      6428      7047      7048      7049      7050
     17255      6451      6449      6447      6448      7048      7041      7040      7049
     17256      6430      6452      6451      6429      7051      7052      7048      7047
     17257      6452      6450      6449      6451      7052      7043      7041      7048
     17258      6431      6437      6452      6430      7053      7054      7052      7051
     17259      6437      6438      6450      6452      7054      7045      7043      7052
     17260      6416      6417      6453      6446      7055      7056      7057      7058
     17261      6446      6453      6454      6445      7058      7057      7059      7060
     17262      6445      6454      6447      6444      7060      7059      7040      7039
     17263      6426      6455      6418      6419      7061      7062      7063      7064
     17264      6455      6453      6417      6418      7062      7057      7056      7063
     17265      6427      6456      6455      6426      7065      7066      7062      7061
     17266      6456      6454      6453      6455      7066      7059      7057      7062
     17267      6428      6448      6456      6427      7050      7049      7066      7065
     17268      6448      6447      6454      6456      7049      7040      7059      7066
     17269      6395      6459      6441      6394      7067      7068      7069      7070
     17270      6459      6460      6440      6441      7068      7071      7072      7069
# ... 3355 like lines cut
#---1----|----2----|----3----|----4----|----5----|----6----|----7----|----8----|----9----|---10----|
/PART/11
Fabric backframe
        11         6         2
#---1----|----2----|----3----|----4----|----5----|----6----|----7----|----8----|----9----|---10----|
# SHELL elements of /PART/11/Fabric backframe:
#---1----|----2----|----3----|----4----|----5----|----6----|----7----|----8----|----9----|---10----|
/SHELL/11
      6387      6920      6313      6311      6388
      6388      6311      6313      7621      7624
      6389      6388      6311      7624      7623
      6390      6339      6312      6338      6687
      6391      6338      6312      7361      7360
      6392      6312      6339      7359      7361
      6393      6916      6314      6313      6920
      6394      6313      6314      7622      7621
      6395      6923      6315      6314      6916
      6396      6314      6315      7633      7622
      6397      6894      6316      6315      6923
      6398      6315      6316      7595      7633
      6399      6316      6894      6905      6317
      6400      6316      6317      7596      7595
      6401      6906      6318      6317      6905
      6402      6317      6318      7601      7596
      6403      6870      6319      6318      6906
      6404      6318      6319      7602      7601
      6405      6998      6320      6319      6870
      6406      6319      6320      7723      7602
# ... 1850 like lines cut
#---1----|----2----|----3----|----4----|----5----|----6----|----7----|----8----|----9----|---10----|
/PART/12
Seat plate
        12         7         2
#---1----|----2----|----3----|----4----|----5----|----6----|----7----|----8----|----9----|---10----|
# SHELL elements of /PART/12/Seat plate:
#---1----|----2----|----3----|----4----|----5----|----6----|----7----|----8----|----9----|---10----|
/SHELL/12
      8257     10711     12121     12120     12124
      8258     11609     12122     12120     12121
      8259     11875     12123     12120     12122
      8260     11216     12124     12120     12123
      8261     10954     12126     12125     12129
      8262     11829     12127     12125     12126
      8263     11872     12128     12125     12127
      8264     11874     12129     12125     12128
      8265     10963     12131     12130     12133
      8266     11874     12128     12130     12131
      8267     11872     12132     12130     12128
      8268     11873     12133     12130     12132
      8269     10794     12135     12134     12137
      8270     11873     12132     12134     12135
      8271     11872     12136     12134     12132
      8272     11209     12137     12134     12136
      8273     10697     12139     12138     12140
      8274     11209     12136     12138     12139
      8275     11872     12127     12138     12136
      8276     11829     12140     12138     12127
# ... 3116 like lines cut
#---1----|----2----|----3----|----4----|----5----|----6----|----7----|----8----|----9----|---10----|
/PART/13
Seat frame
        13         7         2
#---1----|----2----|----3----|----4----|----5----|----6----|----7----|----8----|----9----|---10----|
# SHELL elements of /PART/13/Seat frame:
#---1----|----2----|----3----|----4----|----5----|----6----|----7----|----8----|----9----|---10----|
/SHELL/13
      8437     10957     12276     12275     12279
      8438     11846     12277     12275     12276
      8439     11844     12278     12275     12277
      8440     11842     12279     12275     12278
      8441     10956     12281     12280     12269
      8442     11842     12278     12280     12281
      8443     11844     12282     12280     12278
      8444     11845     12269     12280     12282
      8445     10951     12267     12283     12285
      8446     11845     12282     12283     12267
      8447     11844     12284     12283     12282
      8448     11827     12285     12283     12284
      8449     10705     12287     12286     12288
      8450     11827     12284     12286     12287
      8451     11844     12277     12286     12284
      8452     11846     12288     12286     12277
      8453     10835     12290     12289     12258
      8454     11357     12291     12289     12290
      8455     11840     12292     12289     12291
      8456     11843     12258     12289     12292
# ... 3340 like lines cut
#---1----|----2----|----3----|----4----|----5----|----6----|----7----|----8----|----9----|---10----|
/PART/14
seat cushion
        14         8         2
#---1----|----2----|----3----|----4----|----5----|----6----|----7----|----8----|----9----|---10----|
# BRICK elements of /PART/14/seat cushion:
#---1----|----2----|----3----|----4----|----5----|----6----|----7----|----8----|----9----|---10----|
/BRICK/14
     20626     17161     17164     17166     17160     17732     17733     17734     17735
     20627     17160     17166     17167     17159     17735     17734     17736     17737
     20628     17159     17167     17155     17156     17737     17736     17738     17739
     20629     17146     17168     17165     17145     17740     17741     17742     17743
     20630     17168     17166     17164     17165     17741     17734     17733     17742
     20631     17147     17169     17168     17146     17744     17745     17741     17740
     20632     17169     17167     17166     17168     17745     17736     17734     17741
     20633     17148     17154     17169     17147     17746     17747     17745     17744
     20634     17154     17155     17167     17169     17747     17738     17736     17745
     20635     17134     17135     17170     17163     17748     17749     17750     17751
     20636     17163     17170     17171     17162     17751     17750     17752     17753
     20637     17162     17171     17164     17161     17753     17752     17733     17732
     20638     17143     17172     17136     17137     17754     17755     17756     17757
     20639     17172     17170     17135     17136     17755     17750     17749     17756
     20640     17144     17173     17172     17143     17758     17759     17755     17754
     20641     17173     17171     17170     17172     17759     17752     17750     17755
     20642     17145     17165     17173     17144     17743     17742     17759     17758
     20643     17165     17164     17171     17173     17742     17733     17752     17759
     20644     17113     17176     17158     17112     17760     17761     17762     17763
     20645     17176     17177     17157     17158     17761     17764     17765     17762
# ... 3105 like lines cut
#---1----|----2----|----3----|----4----|----5----|----6----|----7----|----8----|----9----|---10----|
/PART/15
Fabric seat cushion
        15         9         2
#---1----|----2----|----3----|----4----|----5----|----6----|----7----|----8----|----9----|---10----|
# SHELL elements of /PART/15/Fabric seat cushion:
#---1----|----2----|----3----|----4----|----5----|----6----|----7----|----8----|----9----|---10----|
/SHELL/15
     14753     17613     17057     17056     17106
     14754     17056     17057     18262     18265
     14755     17106     17056     18265     18264
     14756     17609     17058     17057     17613
     14757     17057     17058     18263     18262
     14758     17616     17059     17058     17609
     14759     17058     17059     18274     18263
     14760     17587     17060     17059     17616
     14761     17059     17060     18236     18274
     14762     17060     17587     17598     17061
     14763     17060     17061     18237     18236
     14764     17599     17062     17061     17598
     14765     17061     17062     18242     18237
     14766     17563     17063     17062     17599
     14767     17062     17063     18243     18242
     14768     17691     17064     17063     17563
     14769     17063     17064     18364     18243
     14770     17687     17065     17064     17691
     14771     17064     17065     18365     18364
     14772     17694     17066     17065     17687
# ... 1730 like lines cut
#---1----|----2----|----3----|----4----|----5----|----6----|----7----|----8----|----9----|---10----|
/PART/16
LAP_H395
        16        10         1
#---1----|----2----|----3----|----4----|----5----|----6----|----7----|----8----|----9----|---10----|
# SHELL elements of /PART/16/LAP_H395:
#---1----|----2----|----3----|----4----|----5----|----6----|----7----|----8----|----9----|---10----|
/SHELL/16
     16883     21596     21597     21602     21601
     16884     21597     21598     21603     21602
     16885     21598     21599     21604     21603
     16886     21599     21600     21605     21604
     16887     21601     21602     21607     21606
     16888     21602     21603     21608     21607
     16889     21603     21604     21609     21608
     16890     21604     21605     21610     21609
     16891     21606     21607     21612     21611
     16892     21607     21608     21613     21612
     16893     21608     21609     21614     21613
     16894     21609     21610     21615     21614
     16895     21611     21612     21617     21616
     16896     21612     21613     21618     21617
     16897     21613     21614     21619     21618
     16898     21614     21615     21620     21619
     16899     21616     21617     21622     21621
     16900     21617     21618     21623     21622
     16901     21618     21619     21624     21623
     16902     21619     21620     21625     21624
# ... 348 like lines cut
#---1----|----2----|----3----|----4----|----5----|----6----|----7----|----8----|----9----|---10----|
/PART/17
SH_BELT
        17        11         1
#---1----|----2----|----3----|----4----|----5----|----6----|----7----|----8----|----9----|---10----|
# SHELL elements of /PART/17/SH_BELT:
#---1----|----2----|----3----|----4----|----5----|----6----|----7----|----8----|----9----|---10----|
/SHELL/17
     16503     21116     21117     21122     21121
     16504     21117     21118     21123     21122
     16505     21118     21119     21124     21123
     16506     21119     21120     21125     21124
     16507     21121     21122     21127     21126
     16508     21122     21123     21128     21127
     16509     21123     21124     21129     21128
     16510     21124     21125     21130     21129
     16511     21126     21127     21132     21131
     16512     21127     21128     21133     21132
     16513     21128     21129     21134     21133
     16514     21129     21130     21135     21134
     16515     21131     21132     21137     21136
     16516     21132     21133     21138     21137
     16517     21133     21134     21139     21138
     16518     21134     21135     21140     21139
     16519     21136     21137     21142     21141
     16520     21137     21138     21143     21142
     16521     21138     21139     21144     21143
     16522     21139     21140     21145     21144
# ... 360 like lines cut
#---1----|----2----|----3----|----4----|----5----|----6----|----7----|----8----|----9----|---10----|
#-  6. SUBSETS:
#---1----|----2----|----3----|----4----|----5----|----6----|----7----|----8----|----9----|---10----|
/SUBSET/1
belt
#---1----|----2----|----3----|----4----|----5----|----6----|----7----|----8----|----9----|---10----|
/SUBSET/2
seat
#---1----|----2----|----3----|----4----|----5----|----6----|----7----|----8----|----9----|---10----|
/SUBSET/3
Sled_Master_NAFE2_S3
         1         2
#---1----|----2----|----3----|----4----|----5----|----6----|----7----|----8----|----9----|---10----|
#-  7. GEOMETRICAL SETS:
#---1----|----2----|----3----|----4----|----5----|----6----|----7----|----8----|----9----|---10----|
/PROP/SHELL/1
Shell
#   Ishell    Ismstr     Ish3n    Idrill                            P_thick_fail
        24         0         0         0                                       0
#                 hm                  hf                  hr                  dm                  dn
                   0                   0                   0                   0                   0
#        N   Istrain               Thick              Ashear              Ithick     Iplas
         5         0                 1.5                   0                   0         0
#---1----|----2----|----3----|----4----|----5----|----6----|----7----|----8----|----9----|---10----|
/PROP/BEAM/2
BEAM
#             Ismstr
                   0
#                 dm                  df
                   0                   0
#               Area                 Iyy                 Izz                 Ixx
                 130               15000               15000               30000
# OmegaDof    Ishear
   000 000         0
#---1----|----2----|----3----|----4----|----5----|----6----|----7----|----8----|----9----|---10----|
/PROP/SHELL/3
Shell
#   Ishell    Ismstr     Ish3n    Idrill                            P_thick_fail
        24         0         0         0                                       0
#                 hm                  hf                  hr                  dm                  dn
                   0                   0                   0                   0                   0
#        N   Istrain               Thick              Ashear              Ithick     Iplas
         5         0                 1.5                   0                   0         0
#---1----|----2----|----3----|----4----|----5----|----6----|----7----|----8----|----9----|---10----|
/PROP/TRUSS/4
Wire
#               Area             Gap_ini
                  50                   0
#---1----|----2----|----3----|----4----|----5----|----6----|----7----|----8----|----9----|---10----|
/PROP/SPR_PUL/5
Belt pulley
#               Mass                               sensor_ID    Isflag     Ileng                Fric
                .001                                       0         0         1                  .2
#                  K                   C                   A                   B                   D
                 100                   0                   0                   0                   0
#funct_ID1         H funct_ID2 funct_ID3 funct_ID4                     delta_min           delta_max
         0         0         0         0         0                             0                   0
#            Fscale1                   E             Ascalex                  H4
                   0                   0                   0                   0
# Fct_IDfr       Ifr            Yscale_F            Xscale_F               F_min               F_max
         0         0                   0                   0                   0                   0
#---1----|----2----|----3----|----4----|----5----|----6----|----7----|----8----|----9----|---10----|
/PROP/SPRING/6
Load limiter
#                  M                               sensor_ID    Isflag     Ileng
                .001                                       0         0         0
#                  K                   C                   A                   B                   D
                  10                   0                   0                   0                   0
#funct_ID1         H funct_ID2 funct_ID3 funct_ID4                     delta_min           delta_max
         1         2         0         0         0                             0                   0
#            Fscale1                   E             Ascalex             HSCALE4
                   1                   0                   0                   0
#---1----|----2----|----3----|----4----|----5----|----6----|----7----|----8----|----9----|---10----|
/PROP/SPR_PRE/7
Pretensioner
#                  M                               sensor_ID     Ilock
                .001                                       1         1
#              Stif0                  F1                  D1                  E1               Stif1
                  10                   0                   0                   0                   0
#  fct_ID1   fct_ID2                                Ascale_2            Ascale_1            Fscale_F
         2         0                                    1000                   1                .001
#---1----|----2----|----3----|----4----|----5----|----6----|----7----|----8----|----9----|---10----|
/PROP/SHELL/8
Shell
#   Ishell    Ismstr     Ish3n    Idrill                            P_thick_fail
        24         0         0         0                                       0
#                 hm                  hf                  hr                  dm                  dn
                   0                   0                   0                   0                   0
#        N   Istrain               Thick              Ashear              Ithick     Iplas
         5         0                 1.5                   0                   0         0
#---1----|----2----|----3----|----4----|----5----|----6----|----7----|----8----|----9----|---10----|
/PROP/BEAM/9
BEAM
#             Ismstr
                   0
#                 dm                  df
                   0                   0
#               Area                 Iyy                 Izz                 Ixx
                 130               15000               15000               30000
# OmegaDof    Ishear
   000 000         0
#---1----|----2----|----3----|----4----|----5----|----6----|----7----|----8----|----9----|---10----|
/PROP/SOLID/10
Foam
#   Isolid    Ismstr               Icpre  Itetra10     Inpts   Itetra4    Iframe                  dn
        24         0                   0         0         0         0         0                   0
#                q_a                 q_b                   h            LAMBDA_V                MU_V
                   0                   0                   0                   0                   0
#             dt_min
                   0
#---1----|----2----|----3----|----4----|----5----|----6----|----7----|----8----|----9----|---10----|
/PROP/SH_ORTH/11
Fabric
#   Ishell    Ismstr     Ish3n    Idrill                            P_thick_fail
        24         0         0         0                                       0
#                 hm                  hf                  hr                  dm                  dn
                   0                   0                   0                   0                   0
#        N   Istrain               Thick              Ashear              Ithick     Iplas
         1         0                  .7                   0                   0         0
#                 Vx                  Vy                  Vz                 Phi
                   1                   1                   1                   0
#---1----|----2----|----3----|----4----|----5----|----6----|----7----|----8----|----9----|---10----|
/PROP/SHELL/12
Shell
#   Ishell    Ismstr     Ish3n    Idrill                            P_thick_fail
        24         0         0         0                                       0
#                 hm                  hf                  hr                  dm                  dn
                   0                   0                   0                   0                   0
#        N   Istrain               Thick              Ashear              Ithick     Iplas
         5         0                 1.5                   0                   0         0
#---1----|----2----|----3----|----4----|----5----|----6----|----7----|----8----|----9----|---10----|
/PROP/SHELL/13
Shell
#   Ishell    Ismstr     Ish3n    Idrill                            P_thick_fail
        24         0         0         0                                       0
#                 hm                  hf                  hr                  dm                  dn
                   0                   0                   0                   0                   0
#        N   Istrain               Thick              Ashear              Ithick     Iplas
         5         0                   3                   0                   0         0
#---1----|----2----|----3----|----4----|----5----|----6----|----7----|----8----|----9----|---10----|
/PROP/SOLID/14
Foam
#   Isolid    Ismstr               Icpre  Itetra10     Inpts   Itetra4    Iframe                  dn
        24         0                   0         0         0         0         0                   0
#                q_a                 q_b                   h            LAMBDA_V                MU_V
                   0                   0                   0                   0                   0
#             dt_min
                   0
#---1----|----2----|----3----|----4----|----5----|----6----|----7----|----8----|----9----|---10----|
/PROP/SH_ORTH/15
Fabric
#   Ishell    Ismstr     Ish3n    Idrill                            P_thick_fail
        24         0         0         0                                       0
#                 hm                  hf                  hr                  dm                  dn
                   0                   0                   0                   0                   0
#        N   Istrain               Thick              Ashear              Ithick     Iplas
         1         0                  .7                   0                   0         0
#                 Vx                  Vy                  Vz                 Phi
                   1                   1                   1                   0
#---1----|----2----|----3----|----4----|----5----|----6----|----7----|----8----|----9----|---10----|
/PROP/SHELL/16
2D Belt
#   Ishell    Ismstr     Ish3n    Idrill                            P_thick_fail
        24         2         0         0                                       0
#                 hm                  hf                  hr                  dm                  dn
                   0                   0                   0                   0                   0
#        N   Istrain               Thick              Ashear              Ithick     Iplas
         2         0                 1.5                   1                   1         2
#---1----|----2----|----3----|----4----|----5----|----6----|----7----|----8----|----9----|---10----|
/PROP/SHELL/17
2D Belt
#   Ishell    Ismstr     Ish3n    Idrill                            P_thick_fail
        24         2         0         0                                       0
#                 hm                  hf                  hr                  dm                  dn
                   0                   0                   0                   0                   0
#        N   Istrain               Thick              Ashear              Ithick     Iplas
         2         0                 1.5                   1                   1         2
#---1----|----2----|----3----|----4----|----5----|----6----|----7----|----8----|----9----|---10----|
/PROP/SH_ORTH/18
2D Belt
#   Ishell    Ismstr     Ish3n    Idrill                            P_thick_fail
         4         0         0         0                                       0
#                 hm                  hf                  hr                  dm                  dn
                   0                   0                   0                   0                   0
#        N   Istrain               Thick              Ashear              Ithick     Iplas
         2         0                 1.2                   0                   0         0
#                 Vx                  Vy                  Vz                 Phi
                   0                   0                   1                   0
#---1----|----2----|----3----|----4----|----5----|----6----|----7----|----8----|----9----|---10----|
/PROP/SH_ORTH/19
2D Belt
#   Ishell    Ismstr     Ish3n    Idrill                            P_thick_fail
         4         0         0         0                                       0
#                 hm                  hf                  hr                  dm                  dn
                   0                   0                   0                   0                   0
#        N   Istrain               Thick              Ashear              Ithick     Iplas
         2         0                 1.2                   0                   0         0
#                 Vx                  Vy                  Vz                 Phi
                   0                   0                   1                   0
#---1----|----2----|----3----|----4----|----5----|----6----|----7----|----8----|----9----|---10----|
/PROP/SH_ORTH/20
2D Belt
#   Ishell    Ismstr     Ish3n    Idrill                            P_thick_fail
         4         0         0         0                                       0
#                 hm                  hf                  hr                  dm                  dn
                   0                   0                   0                   0                   0
#        N   Istrain               Thick              Ashear              Ithick     Iplas
         2         0                 1.2                   0                   0         0
#                 Vx                  Vy                  Vz                 Phi
                   0                   0                   1                   0
#---1----|----2----|----3----|----4----|----5----|----6----|----7----|----8----|----9----|---10----|
/PROP/SH_ORTH/21
2D Belt
#   Ishell    Ismstr     Ish3n    Idrill                            P_thick_fail
         4         0         0         0                                       0
#                 hm                  hf                  hr                  dm                  dn
                   0                   0                   0                   0                   0
#        N   Istrain               Thick              Ashear              Ithick     Iplas
         2         0                 1.2                   0                   0         0
#                 Vx                  Vy                  Vz                 Phi
                   0                   0                   1                   0
#---1----|----2----|----3----|----4----|----5----|----6----|----7----|----8----|----9----|---10----|
#-  8. FUNCTIONS:
#---1----|----2----|----3----|----4----|----5----|----6----|----7----|----8----|----9----|---10----|
/FUNCT/1
Load limitor
#                  X                   Y
                -100                   0
                   0                   0
                  .6                   6
                 100                   6
                 101                  16
#---1----|----2----|----3----|----4----|----5----|----6----|----7----|----8----|----9----|---10----|
/FUNCT/2
Pretensionner
#                  X                   Y
                -121                 -10
                -120                   0
                 -50                 2.5
                   0                   3
                   1                  10
#---1----|----2----|----3----|----4----|----5----|----6----|----7----|----8----|----9----|---10----|
/FUNCT/3
Foam
#                  X                   Y
                -.75                 1.1
                 -.7                .095
                 -.6                .082
                 -.5                 .07
                 -.4                .059
                 -.3                .044
                 -.2                 .03
                 -.1                .017
                   0                   0
                   1                .017
#---1----|----2----|----3----|----4----|----5----|----6----|----7----|----8----|----9----|---10----|
/FUNCT/4
typic_PULSE_16g
#                  X                   Y
                   0      -6.63432642E-7
           .50000002     -1.574000766E-5
                   1     -1.384084071E-5
                 1.5      1.761201072E-5
           2.0000001     8.8852215024E-5
           2.4999999      2.061065304E-4
                   3     3.7306175301E-4
           3.5000001     5.9349428748E-4
           4.0000002     8.7283325268E-4
           4.4999998       .001216415475
           4.9999999       .001626677523
                 5.5      .0021016042461
           6.0000001      .0026378257131
           6.5000001      .0032403863241
           7.0000002       .003927704256
           7.4999998       .004725899811
           8.0000004      .0056616601131
           8.5000005      .0067590643959
           8.9999996      .0080396502201
           9.4999997      .0095213832273
# ... 381 like lines cut
#---1----|----2----|----3----|----4----|----5----|----6----|----7----|----8----|----9----|---10----|
/FUNCT/5
Foam
#                  X                   Y
                -.75                 1.1
                 -.7                .095
                 -.6                .082
                 -.5                 .07
                 -.4                .059
                 -.3                .044
                 -.2                 .03
                 -.1                .017
                   0                   0
                   1                .017
#---1----|----2----|----3----|----4----|----5----|----6----|----7----|----8----|----9----|---10----|
/FUNCT/6
_LOADING
#                  X                   Y
                   0                   0
         .0099999998          .010285725
                 .02          .026505525
          .029999999         .0506373735
          .039999999           .07556025
          .050000001           .09257175
          .059999999         .1079999925
                 .07            .1214505
          .079999998         .1313407425
          .090000004            .1424175
                  .1             .152703
                 .11           .16259325
                 .12           .17509725
#---1----|----2----|----3----|----4----|----5----|----6----|----7----|----8----|----9----|---10----|
/FUNCT/7
_UNLOADING
#                  X                   Y
                   0                   0
          .059999999                   0
                 .07        .01542854925
          .079999998        .03402194925
          .090000004        .05617582275
                  .1             .081099
                 .11             .116703
                 .12           .17509725
#---1----|----2----|----3----|----4----|----5----|----6----|----7----|----8----|----9----|---10----|
#-  9. SENSORS:
#---1----|----2----|----3----|----4----|----5----|----6----|----7----|----8----|----9----|---10----|
/SENSOR/TIME/1
TIME Sensor
#             Tdelay
                 .02
				 
#---1----|----2----|----3----|----4----|----5----|----6----|----7----|----8----|----9----|---10----|
#- 10. INTERFACES:
#---1----|----2----|----3----|----4----|----5----|----6----|----7----|----8----|----9----|---10----|
/INTER/TYPE2/1
colle_dossier
# Secon_id   Surf_id    Ignore  Spotflag     Level   Isearch      Idel                       Dsearch
         8        16         1         0         0         0         0                             2
/GRNOD/NODE/8
INTER_group_15001139_of_NODE
         4         5         8        10        11        14        20        22        23        25
        27        28        29        30        31        32        34        35        36        37
        38        40        42        44        46        48        49        50        51        52
        60        61        62        63        64        68        69        70        71        73
        74        76        77        78        79        81        82        85        86        87
        88        90        92        93        94        95        96        98        99       100
       101       102       103       104       105       106       107       109       112       113
       114       115       116       119       121       122       123       124       125       126
       127       128       130       133       135       136       137       138       139       140
       141       142       143       144       145       146       147       148       149       150
       151       152       153       154       155       157       159       161       162       163
       164       165       166       168       173       175       176       177       178       179
       180       181       185       187       188       189       190       191       192       193
       194       195       197       198       199       200       201       202       203       204
       205       206       207       208       209       210       211       212       213       218
       220       221       222       223       224       232       233       234       235       236
       237       238       240       241       242       346       347       348       349       350
       351       352       353       354       355       356       357       358       359       360
       361       362       363       364       365       366       367       368       369       370
       371       372       373       374       375       380       382       385       386       387
# ... 231 like lines cut
/SURF/GRSHEL/16
INTER_group_15001140_of_GRSHEL
        14
/GRSHEL/SHEL/14
INTER_group_15001141_of_SHELL4N
      6387      6390      6393      6395      6397      6399      6401      6403      6405      6407
      6409      6411      6413      6415      6417      6419      6421      6423      6425      6427
      6429      6431      6433      6435      6437      6439      6441      6443      6445      6447
      6449      6451      6453      6455      6457      6459      6461      6463      6465      6467
      6469      6471      6473      6475      6477      6479      6481      6483      6485      6487
      6489      6492      6495      6497      6499      6501      6503      6505      6507      6509
      6511      6513      6515      6517      6519      6521      6523      6525      6527      6529
      6531      6533      6535      6537      6539      6541      6542      6545      6546      6547
      6548      6549      6550      6551      6552      6553      6554      6555      6556      6557
      6558      6559      6560      6561      6562      6563      6564      6565      6566      6567
      6568      6569      6570      6571      6572      6573      6574      6575      6576      6577
      6578      6579      6580      6581      6582      6583      6584      6585      6586      6587
      6588      6589      6590      6591      6592      6593      6594      6595      6596      6597
      6598      6599      6600      6601      6602      6603      6604      6605      6606      6607
      6608      6609      6610      6611      6612      6613      6614      6615      6616      6617
      6618      6619      6620      6621      6622      6623      6624      6625      6626      6627
      6628      6629      6630      6631      6632      6635      6636      6637      6638      6639
      6640      6641      6642      6643      6644      6645      6646      6647      6648      6649
      6650      6651      6652      6653      6654      6655      6656      6657      6658      6659
      6660      6661      6662      6663      6664      6665      6666      6667      6668      6669
# ... 48 like lines cut
#---1----|----2----|----3----|----4----|----5----|----6----|----7----|----8----|----9----|---10----|
/INTER/TYPE2/2
assise
# Secon_id   Surf_id    Ignore  Spotflag     Level   Isearch      Idel                       Dsearch
        13        17         1         0         0         0         0                             0
/GRNOD/PART/13
INTER_group_25000115_of_PART
        12
/SURF/GRSHEL/17
INTER_group_25000119_of_GRSHEL
        15
/GRSHEL/SHEL/15
INTER_group_25000120_of_SHELL4N
     14753     14756     14758     14760     14762     14764     14766     14768     14770     14772
     14774     14776     14778     14780     14782     14784     14786     14788     14790     14792
     14794     14796     14798     14800     14802     14805     14808     14810     14812     14814
     14816     14818     14820     14822     14824     14826     14828     14830     14832     14834
     14836     14838     14840     14842     14844     14846     14848     14850     14852     14854
     14855     14858     14859     14860     14861     14862     14863     14864     14865     14866
     14867     14868     14869     14870     14871     14872     14873     14874     14875     14876
     14877     14878     14879     14880     14881     14882     14883     14884     14885     14886
     14887     14888     14889     14890     14891     14892     14893     14894     14895     14896
     14897     14898     14899     14900     14901     14902     14903     14904     14905     14906
     14907     14908     14909     14910     14911     14912     14913     14914     14915     14916
     14917     14918     14919     14920     14921     14922     14923     14926     14927     14928
     14929     14930     14931     14932     14933     14934     14935     14936     14937     14938
     14939     14940     14941     14942     14943     14944     14945     14948     14949     14950
     14951     14952     14953     14954     14955     14956     14957     14958     14959     14960
     14961     14962     14963     14964     14965     14966     14967     14968     14969     14970
     14971     14972     14973     14974     14975     14976     14977     14978     14979     14980
     14981     14982     14983     14984     14985     14988     14990     14992     14993     14996
     14997     14998     14999     15000     15001     15002     15003     15004     15005     15006
     15007     15008     15009     15014     15015     15016     15017     15018     15019     15020
# ... 43 like lines cut
#---1----|----2----|----3----|----4----|----5----|----6----|----7----|----8----|----9----|---10----|
#- 11. RIGID BODIES:
#---1----|----2----|----3----|----4----|----5----|----6----|----7----|----8----|----9----|---10----|
/RBODY/1
Recliner
#     RBID     ISENS     NSKEW    ISPHER                MASS   Gnod_id     IKREM      ICOG   Surf_id
      5732         0         0         0                   0         1         0         0         0
#                Jxx                 Jyy                 Jzz
                   0                   0                   0
#                Jxy                 Jyz                 Jxz
                   0                   0                   0
#  Ioptoff               Ifail
         0         0         0
/GRNOD/NODE/1
RBODY_group_369_of_NODE
        33       229       247       263       342       416       451      1013      1028      1571
      1583      2822      2824      4536      4548      4596      4598      4778      4779      5390
      5391      5392      5393      5394      5395      5396      5441      5442      5443      5444
      5445      5446      5447     10682     10884     11052     11540     11547     11969     11980
     13568     13570     13601     13611     15761     15775     15797     15799     16417     16481
     16482     16483     16484     16485     16486     16487     16488     16489     16490     16491
     16492     16493     16494     16495
#---1----|----2----|----3----|----4----|----5----|----6----|----7----|----8----|----9----|---10----|
/RBODY/2
Recliner 2
#     RBID     ISENS     NSKEW    ISPHER                MASS   Gnod_id     IKREM      ICOG   Surf_id
      5733         0         0         0                   0         2         0         0         0
#                Jxx                 Jyy                 Jzz
                   0                   0                   0
#                Jxy                 Jyz                 Jxz
                   0                   0                   0
#  Ioptoff               Ifail
         0         0         0
/GRNOD/NODE/2
RBODY_group_370_of_NODE
        16        45       184       248       267       325       605       607      1090      1092
      3664      3666      3669      3681      4345      4347      4350      4443      4906      4907
      5332      5333      5334      5335      5336      5337      5338      5383      5384      5385
      5386      5387      5388      5389     10681     10927     10982     11068     11715     11721
     11923     11925     12814     12826     12835     12837     15950     15952     15955     15965
     16281     16282     16283     16284     16285     16286     16287     16288     16289     16345
     16346     16347     16348     16349     16350     16351     16352     16353
#---1----|----2----|----3----|----4----|----5----|----6----|----7----|----8----|----9----|---10----|
/RBODY/3
Floor
#     RBID     ISENS     NSKEW    ISPHER                MASS   Gnod_id     IKREM      ICOG   Surf_id
      6310         0         0         0                   0         7         0         0         0
#                Jxx                 Jyy                 Jzz
                   0                   0                   0
#                Jxy                 Jyz                 Jxz
                   0                   0                   0
#  Ioptoff               Ifail
         0         0         0
/GRNOD/GRNOD/7
RBODY_group_15001136_of_GRNOD
         5         6
/GRNOD/PART/5
RBODY_group_15001138_of_PART
         8         9
/GRNOD/NODE/6
RBODY_group_15001137_of_NODE
       243       244       245       246      5734      5735      5736
#---1----|----2----|----3----|----4----|----5----|----6----|----7----|----8----|----9----|---10----|
/RBODY/4
SH_H395_RBody_final_node
#     RBID     ISENS     NSKEW    ISPHER                MASS   Gnod_id     IKREM      ICOG   Surf_id
     21112         0         0         0                   0         9         0         0         0
#                Jxx                 Jyy                 Jzz
                   0                   0                   0
#                Jxy                 Jyz                 Jxz
                   0                   0                   0
#  Ioptoff               Ifail
         0         0         0
/GRNOD/NODE/9
LAP_H395_RBody_first_node
      5739     21591     21592     21593     21594     21595
#---1----|----2----|----3----|----4----|----5----|----6----|----7----|----8----|----9----|---10----|
/RBODY/5
LAP_H395_RBody_last_node
#     RBID     ISENS     NSKEW    ISPHER                MASS   Gnod_id     IKREM      ICOG   Surf_id
     21113         0         0         0                   0        10         0         0         0
#                Jxx                 Jyy                 Jzz
                   0                   0                   0
#                Jxy                 Jyz                 Jxz
                   0                   0                   0
#  Ioptoff               Ifail
         0         0         0
/GRNOD/NODE/10
LAP_H395_RBdy_last_node
      5738     22056     22057     22058     22059     22060
#---1----|----2----|----3----|----4----|----5----|----6----|----7----|----8----|----9----|---10----|
/RBODY/6
SH_BELT_RBody_first_node
#     RBID     ISENS     NSKEW    ISPHER                MASS   Gnod_id     IKREM      ICOG   Surf_id
     21114         0         0         0                   0        11         0         0         0
#                Jxx                 Jyy                 Jzz
                   0                   0                   0
#                Jxy                 Jyz                 Jxz
                   0                   0                   0
#  Ioptoff               Ifail
         0         0         0
/GRNOD/NODE/11
SH_BELT_RBody_first_node
      5740     21116     21117     21118     21119     21120
#---1----|----2----|----3----|----4----|----5----|----6----|----7----|----8----|----9----|---10----|
/RBODY/7
LAP_BELT_RBody_last_node
#     RBID     ISENS     NSKEW    ISPHER                MASS   Gnod_id     IKREM      ICOG   Surf_id
     21115         0         0         0                   0        12         0         0         0
#                Jxx                 Jyy                 Jzz
                   0                   0                   0
#                Jxy                 Jyz                 Jxz
                   0                   0                   0
#  Ioptoff               Ifail
         0         0         0
/GRNOD/NODE/12
SH_BELT_RBody_last_node
      5737     21596     21597     21598     21599     21600
#---1----|----2----|----3----|----4----|----5----|----6----|----7----|----8----|----9----|---10----|
#- 12. IMPOSED ACCELERATIONS:
#---1----|----2----|----3----|----4----|----5----|----6----|----7----|----8----|----9----|---10----|
/IMPACC/1
decel pulse
#funct_IDT       Dir   skew_ID sensor_ID  grnod_ID
         4         X         0         0         4
#           Ascale_x            Fscale_Y              Tstart               Tstop
                   1                   1                   0                   0
/GRNOD/NODE/4
IMPACC_group_15000893_of_NODE
      6310
#---1----|----2----|----3----|----4----|----5----|----6----|----7----|----8----|----9----|---10----|
/INTER/TYPE19/3
dummy seat
# Secon_id   Main_id      Istf      Ithe      Igap     Iedge      Ibag      Idel     Icurv
        15  25000110         4         0         0         0         0         0         0
#          Gap_scale             Gap_max
                   0                   0
#              Stmin               Stmax          %mesh_size               dtmin  Irem_gap   Irem_i2
                   1                   0                   0                   0         0         0
#              Stfac                Fric             Gap_min              Tstart               Tstop
                   0                  .3                 .94                   0                   0
#      IBC                        Inacti                VisS                VisF              Bumult
       000                             5                   0                   0                   0
#    Ifric    Ifiltr               Xfreq     Iform   Isensor                                 fric_ID
         0         0                   0         2         0                                       0
/SURF/PART/EXT/15
INTER_group_15001137_of_PART
        13        11        15         3
/SURF/PART/EXT/25000110
INTER_group_25000111_of_PART
  15000000  15000001  15000002  15000003  15000004  15000006  15000007  15000008  15000009  15000010
  15000012  15000013  15000014  15000015  15000016  15000071  15000072  15000076	 
#---1----|----2----|----3----|----4----|----5----|----6----|----7----|----8----|----9----|---10----|
/INTER/TYPE19/4
foot_floor
# Secon_id   Main_id      Istf      Ithe      Igap     Iedge      Ibag      Idel     Icurv
  25000111  25000112         4         0         0         0         0         0         0
#          Gap_scale             Gap_max
                   0                   0
#              Stmin               Stmax          %mesh_size               dtmin  Irem_gap   Irem_i2
                   1                   0                   0                   0         0         0
#              Stfac                Fric             Gap_min              Tstart               Tstop
                   0                  .2                1.49                   0                   0
#      IBC                        Inacti                VisS                VisF              Bumult
       000                             5                   0                   0                   0
#    Ifric    Ifiltr               Xfreq     Iform   Isensor                                 fric_ID
         0         0                   0         2         0                                       0
/SURF/PART/25000111
INTER_group_25000112_of_PART
         8
/SURF/PART/EXT/25000112
INTER_group_25000113_of_PART
  15000011  15000017
#---1----|----2----|----3----|----4----|----5----|----6----|----7----|----8----|----9----|---10----|
/INTER/TYPE19/5
belt_dummy
# Secon_id   Main_id      Istf      Ithe      Igap     Iedge      Ibag      Idel     Icurv
  25000113  25000114         4         0         0         0         0         0         0
#          Gap_scale             Gap_max
                   0                   0
#              Stmin               Stmax          %mesh_size               dtmin  Irem_gap   Irem_i2
                   1                   0                   0                   0         0         0
#              Stfac                Fric             Gap_min              Tstart               Tstop
                   0                  .2                   1                   0                   0
#      IBC                        Inacti                VisS                VisF              Bumult
       000                             5                   0                   0                   0
#    Ifric    Ifiltr               Xfreq     Iform   Isensor                                 fric_ID
         0         0                   0         2         0                                       0
/SURF/PART/EXT/25000113
INTER_group_25000114_of_PART
  15000001  15000002  15000003  15000004  15000009  15000015  15000071  15000072   
/SURF/PART/25000114
INTER_group_25000115_of_PART
        16        17
#---1----|----2----|----3----|----4----|----5----|----6----|----7----|----8----|----9----|---10----|
#- 13. TIME HISTORIES:
#---1----|----2----|----3----|----4----|----5----|----6----|----7----|----8----|----9----|---10----|
/TH/PART/1
foams
#     var1      var2      var3      var4      var5      var6      var7      var8      var9     var10
DEF       
#     Obj1      Obj2      Obj3      Obj4      Obj5      Obj6      Obj7      Obj8      Obj9     Obj10
        14        10
#---1----|----2----|----3----|----4----|----5----|----6----|----7----|----8----|----9----|---10----|
/TH/PART/2
All
#     var1      var2      var3      var4      var5      var6      var7      var8      var9     var10
DEF       
#     Obj1      Obj2      Obj3      Obj4      Obj5      Obj6      Obj7      Obj8      Obj9     Obj10
         4         5         6         7
#---1----|----2----|----3----|----4----|----5----|----6----|----7----|----8----|----9----|---10----|
/TH/PART/3
All
#     var1      var2      var3      var4      var5      var6      var7      var8      var9     var10
DEF       
#     Obj1      Obj2      Obj3      Obj4      Obj5      Obj6      Obj7      Obj8      Obj9     Obj10
         8         9
#---1----|----2----|----3----|----4----|----5----|----6----|----7----|----8----|----9----|---10----|
/TH/PART/4
All
#     var1      var2      var3      var4      var5      var6      var7      var8      var9     var10
DEF       
#     Obj1      Obj2      Obj3      Obj4      Obj5      Obj6      Obj7      Obj8      Obj9     Obj10
        12        13
#---1----|----2----|----3----|----4----|----5----|----6----|----7----|----8----|----9----|---10----|
/END
#---1----|----2----|----3----|----4----|----5----|----6----|----7----|----8----|----9----|---10----|
