#RADIOSS STARTER
# Copyright (C) 2022 Altair Engineering Inc. ("Holder")
# Model is licensed by Holder under CC BY-NC 4.0
# (https://creativecommons.org/licenses/by-nc/4.0/legalcode).
#---1----|----2----|----3----|----4----|----5----|----6----|----7----|----8----|----9----|---10----|
/BEGIN
tensile_LAW36_strain_rate
      2017         0
                  kg                  mm                  ms
                  kg                  mm                  ms
#---1----|----2----|----3----|----4----|----5----|----6----|----7----|----8----|----9----|---10----|
#-  1. CONTROL CARDS:
#---1----|----2----|----3----|----4----|----5----|----6----|----7----|----8----|----9----|---10----|
/TITLE

#---1----|----2----|----3----|----4----|----5----|----6----|----7----|----8----|----9----|---10----|
#-  2. MATERIALS:
#---1----|----2----|----3----|----4----|----5----|----6----|----7----|----8----|----9----|---10----|
/MAT/PLAS_TAB/2
MAT_LAW36
#              RHO_I
              7.8E-6                   0
#                  E                  Nu           Eps_p_max               Eps_t               Eps_m
                 210                  .3                 0.0                   0                   0
#  N_funct  F_smooth              C_hard               F_cut               Eps_f                  VP
         6         1                   0                  10                   0                   0
#  fct_IDp              Fscale   Fct_IDE                EInf                  CE
         0                   0         0                   0                   0
# func_ID1  func_ID2  func_ID3  func_ID4  func_ID5
         2         3         4         5         6
         7
#           Fscale_1            Fscale_2            Fscale_3            Fscale_4            Fscale_5
                .001                .001                .001                .001                .001
                .001
#          Eps_dot_1           Eps_dot_2           Eps_dot_3           Eps_dot_4           Eps_dot_5
                5E-6                1E-4                 .01                  .1                  .5
                   1
#---1----|----2----|----3----|----4----|----5----|----6----|----7----|----8----|----9----|---10----|
#-  3. NODES:
#---1----|----2----|----3----|----4----|----5----|----6----|----7----|----8----|----9----|---10----|
/NODE
        13                 100                   0                   0
        14                 100                   2                   0
        15                 100                   4                   0
        16                 100               5.975                   0
        17               97.99                   6                   0
        18               95.97                   6                   0
        19               93.96                   6                   0
        20               91.94                   6                   0
        21               89.93                   6                   0
        22               87.91                   6                   0
        23                85.9                   6                   0
        24               83.88                   6                   0
        25               81.87                   6                   0
        26               79.86                   6                   0
        27               77.84                   6                   0
        28               75.83                   6                   0
        29               73.81                   6                   0
        30                71.8                   6                   0
        31               69.78                   6                   0
        32               67.77                   6                   0
# ... 900 like lines cut
#---1----|----2----|----3----|----4----|----5----|----6----|----7----|----8----|----9----|---10----|
#-  4. BOUNDARY CONDITIONS:
#---1----|----2----|----3----|----4----|----5----|----6----|----7----|----8----|----9----|---10----|
/BCS/1
constraint1
#  Tra rot   skew_ID  grnod_ID
   111 111         0         2
/GRNOD/NODE/2
grnodnode
        60        61        62        63        64        65        66        67        68        69
        70        71        72        73        74        75        76        77        78       122
       123       126       127       128       129       170       171       172       173       218
       219       220       221       222       227       228       229       230       231       232
       233       234       235       236       237       254       255       256       257       317
       318       319       320       321       322       323       324       325       326       327
       328       379       380       383       384       385       386       427       428       429
       430       475       476       477       478       479       484       485       486       487
       488       489       490       491       492       493       494       511       512       513
       514
#---1----|----2----|----3----|----4----|----5----|----6----|----7----|----8----|----9----|---10----|
/BCS/2
constraint2
#  Tra rot   skew_ID  grnod_ID
   011 111         0         3
/GRNOD/NODE/3
grnodnode.1
       990
#---1----|----2----|----3----|----4----|----5----|----6----|----7----|----8----|----9----|---10----|
#-  5. PARTS:
#---1----|----2----|----3----|----4----|----5----|----6----|----7----|----8----|----9----|---10----|
/PART/3
Tensile_coupon
         1         2         0
#---1----|----2----|----3----|----4----|----5----|----6----|----7----|----8----|----9----|---10----|
# SH3N elements of /PART/3/Tensile_coupon:
#---1----|----2----|----3----|----4----|----5----|----6----|----7----|----8----|----9----|---10----|
/SH3N/3
       200       261       266       267                                       0                   0
       201       518       524       523                                       0                   0
       202       775       781       780                                       0                   0
      1007       981       986       987                                       0                   0
#---1----|----2----|----3----|----4----|----5----|----6----|----7----|----8----|----9----|---10----|
# SHELL elements of /PART/3/Tensile_coupon:
#---1----|----2----|----3----|----4----|----5----|----6----|----7----|----8----|----9----|---10----|
/SHELL/3
       203        65        66        67       122                             0                   0
       204        71        72        73       123                             0                   0
       205        15        16        17       124                             0                   0
       206       121        13        14       125                             0                   0
       207       122        67        68       126                             0                   0
       208       126        68        69       127                             0                   0
       209       127        69        70       128                             0                   0
       210       128        70        71       123                             0                   0
       211       123        73        74       129                             0                   0
       212       124        17        18       130                             0                   0
       213       125        14        15       124                             0                   0
       214       130        18        19       131                             0                   0
       215       131        19        20       132                             0                   0
       216       132        20        21       133                             0                   0
       217       133        21        22       134                             0                   0
       218       134        22        23       135                             0                   0
       219       135        23        24       136                             0                   0
       220       136        24        25       137                             0                   0
       221       137        25        26       138                             0                   0
       222       138        26        27       139                             0                   0
# ... 784 like lines cut
#---1----|----2----|----3----|----4----|----5----|----6----|----7----|----8----|----9----|---10----|
#-  6. GEOMETRICAL SETS:
#---1----|----2----|----3----|----4----|----5----|----6----|----7----|----8----|----9----|---10----|
/PROP/SHELL/1
sheet_1.7
#   Ishell    Ismstr     Ish3n    Idrill
        24         0         0         0
#                 hm                  hf                  hr                  dm                  dn
                   0                   0                   0                   0                   0
#        N   Istrain               Thick              Ashear              Ithick     Iplas
         5         0                 2.5                   0                   1         1
#---1----|----2----|----3----|----4----|----5----|----6----|----7----|----8----|----9----|---10----|
#-  7. FUNCTIONS:
#---1----|----2----|----3----|----4----|----5----|----6----|----7----|----8----|----9----|---10----|
/FUNCT/1
Load
#                  X                   Y
                   0                   1                                                            
                1E30                   1                                                            
#---1----|----2----|----3----|----4----|----5----|----6----|----7----|----8----|----9----|---10----|
/FUNCT/2
TRUE_Stress_strain strain rate 0.005 [1/s]
#                  X                   Y
                   0          422.531844                                                            
             .001297          431.998622                                                            
             .002715           458.59505                                                            
             .004083          474.675661                                                            
             .005593          485.168933                                                            
             .006019          500.046469                                                            
             .008445          516.789374                                                            
             .011525          521.666427                                                            
              .01402          541.800701                                                            
               .0175           553.34783                                                            
             .023311          571.574606                                                            
             .033757          601.209949                                                            
             .041156           619.96328                                                            
             .045618          630.448405                                                            
             .055151           650.94536                                                            
              .07125          680.397745                                                            
             .084156          700.149037                                                            
             .099598          720.291231                                                            
              .11762          740.284985                                                            
             .138311          760.136471                                                            
# ... 5 like lines cut
#---1----|----2----|----3----|----4----|----5----|----6----|----7----|----8----|----9----|---10----|
/FUNCT/3
TRUE_Stress_strain strain rate 0.1 [1/s]
#                  X                   Y
                   0          462.707164                                                            
             .001297          472.227942                                                            
             .002715           498.88665                                                            
             .004083          515.025581                                                            
             .005591          525.581853                                                            
             .006018          540.479549                                                            
             .008444          557.323974                                                            
             .011523          562.327027                                                            
             .014017          582.566838                                                            
             .017496          594.258358                                                            
             .023307          612.727228                                                            
              .03375           642.80068                                                            
             .041147           661.86668                                                            
             .045608          672.541331                                                            
              .05514          693.445718                                                            
             .071235          723.594016                                                            
             .084139          743.910646                                                            
             .099577          764.738177                                                            
             .117595            785.5446                                                            
             .138281          806.346761                                                            
# ... 5 like lines cut
#---1----|----2----|----3----|----4----|----5----|----6----|----7----|----8----|----9----|---10----|
/FUNCT/4
TRUE_Stress_strain strain rate 10.0 [1/s]
#                  X                   Y
                   0          492.838654                                                            
             .001297          502.399932                                                            
             .002714           529.10535                                                            
             .004082          545.288021                                                            
             .005591          555.891543                                                            
             .006017          570.804359                                                            
             .008442          587.724924                                                            
             .011521          592.822477                                                            
             .014015           613.14144                                                            
             .017493          624.941254                                                            
             .023303          643.591695                                                            
             .033745          673.993728                                                            
             .041141          693.294229                                                            
             .045601          704.111026                                                            
             .055131          725.320987                                                            
             .071224          755.991219                                                            
             .084126          776.731852                                                            
             .099562          798.073386                                                            
             .117577          819.489311                                                            
              .13826          841.004479                                                            
# ... 5 like lines cut
#---1----|----2----|----3----|----4----|----5----|----6----|----7----|----8----|----9----|---10----|
/FUNCT/5
TRUE_Stress_strain strain rate 100.0 [1/s]
#                  X                   Y
                   0          522.970144                                                            
             .001297          532.571922                                                            
             .002714           559.32405                                                            
             .004081          575.550461                                                            
              .00559          586.201233                                                            
             .006016          601.129169                                                            
             .008441          618.125874                                                            
              .01152          623.317927                                                            
             .014013          643.716042                                                            
             .017491           655.62415                                                            
             .023299          674.456162                                                            
              .03374          705.186776                                                            
             .041135          724.721779                                                            
             .045594          735.680721                                                            
             .055123          757.196256                                                            
             .071213          788.388422                                                            
             .084113          809.553059                                                            
             .099546          831.408596                                                            
             .117558          853.434023                                                            
             .138238          875.662197                                                            
# ... 5 like lines cut
#---1----|----2----|----3----|----4----|----5----|----6----|----7----|----8----|----9----|---10----|
/FUNCT/6
TRUE_Stress_strain strain rate 500.0 [1/s]
#                  X                   Y
                   0          543.057804                                                            
             .001296          552.686582                                                            
             .002713           579.46985                                                            
             .004081          595.725421                                                            
             .005589          606.407693                                                            
             .006015          621.345709                                                            
              .00844          638.393174                                                            
             .011518          643.648227                                                            
             .014011           664.09911                                                            
             .017489          676.079414                                                            
             .023297          695.032474                                                            
             .033736          725.982141                                                            
             .041131          745.673478                                                            
              .04559          756.727184                                                            
             .055117          778.446436                                                            
             .071206          809.986557                                                            
             .084104          831.433863                                                            
             .099536          853.632069                                                            
             .117546           876.06383                                                            
             .138223          898.767342                                                            
# ... 5 like lines cut
#---1----|----2----|----3----|----4----|----5----|----6----|----7----|----8----|----9----|---10----|
/FUNCT/7
TRUE_Stress_strain strain rate 1000.0 [1/s]
#                  X                   Y
                   0          573.189294                                                            
             .001296          582.858572                                                            
             .002713           609.68855                                                            
              .00408          625.987861                                                            
             .005588          636.717383                                                            
             .006014          651.670519                                                            
             .008439          668.794124                                                            
             .011517          674.143677                                                            
             .014009          694.673712                                                            
             .017486           706.76231                                                            
             .023293           725.89694                                                            
             .033731          757.175189                                                            
             .041124          777.101028                                                            
             .045583          788.296879                                                            
             .055109          810.321705                                                            
             .071195           842.38376                                                            
             .084091          864.255069                                                            
              .09952          886.967279                                                            
             .117527          910.008541                                                            
             .138201           933.42506                                                            
# ... 5 like lines cut
#---1----|----2----|----3----|----4----|----5----|----6----|----7----|----8----|----9----|---10----|
#-  8. RIGID BODIES:
#---1----|----2----|----3----|----4----|----5----|----6----|----7----|----8----|----9----|---10----|
/RBODY/1
Rigid_Body
#     RBID     ISENS     NSKEW    ISPHER                MASS   Gnod_id     IKREM      ICOG   Surf_id
       990         0         0         0                   0         1         0         0         0
#                Jxx                 Jyy                 Jzz
                   0                   0                   0
#                Jxy                 Jyz                 Jxz
                   0                   0                   0
#Ioptoff Iexpams
         0         0
/GRNOD/NODE/1
rigid809nodeset
       574       575       576       577       578       579       580       581       582       583
       584       585       586       587       588       589       590       591       592       636
       637       640       641       642       643       684       685       686       687       732
       733       734       735       736       741       742       743       744       745       746
       747       748       749       750       751       768       769       770       771       830
       831       832       833       834       835       836       837       838       839       840
       841       842       843       846       847       848       849       890       891       892
       893       938       939       940       941       942       947       948       949       950
       951       952       953       954       955       956       957       974       975       976
       977
#---1----|----2----|----3----|----4----|----5----|----6----|----7----|----8----|----9----|---10----|
#-  9. IMPOSED VELOCITIES:
#---1----|----2----|----3----|----4----|----5----|----6----|----7----|----8----|----9----|---10----|
/IMPVEL/3
imposed_velocity
#funct_IDT       Dir   skew_ID sensor_ID  grnod_ID  frame_ID     Icoor
         1         X         0         0         4         0         0
#           Ascale_x            Fscale_Y              Tstart               Tstop
                   1                   1                   0                1E30
/GRNOD/NODE/4
grnodnode.2
       990
##--------------------------------------------------------------------------------------------------
## Frames - Fix
##--------------------------------------------------------------------------------------------------
##--------------------------------------------------------------------------------------------------
## Frames - Mov
##--------------------------------------------------------------------------------------------------
/FRAME/MOV/1
                                                                                                    
       102       616       148
#---1----|----2----|----3----|----4----|----5----|----6----|----7----|----8----|----9----|---10----|
#- 10. TIME HISTORIES:
#---1----|----2----|----3----|----4----|----5----|----6----|----7----|----8----|----9----|---10----|
/TH/RBODY/1
TH_Rigid_Body
#     var1      var2      var3      var4      var5      var6      var7      var8      var9     var10
DEF       
#     Obj1      Obj2      Obj3      Obj4      Obj5      Obj6      Obj7      Obj8      Obj9     Obj10
         1
#---1----|----2----|----3----|----4----|----5----|----6----|----7----|----8----|----9----|---10----|
/TH/NODE/2
TH_Measuring_Nodes
#     var1      var2      var3      var4      var5      var6      var7      var8      var9     var10
DEF       
#    NODid     Iskew                                           NODname
       102         1                                                                                
       616         1                                                                                
#---1----|----2----|----3----|----4----|----5----|----6----|----7----|----8----|----9----|---10----|
/END
#---1----|----2----|----3----|----4----|----5----|----6----|----7----|----8----|----9----|---10----|
