#RADIOSS STARTER
#--------------------------------------------------------------------------------------------------|
# <example_es2_sled> ("Model")
# Copyright (C) <2005>-<2025> Altair Engineering Inc. ("Holder")
# Model is licensed by Holder under CC BY-NC 4.0
# (<https://creativecommons.org/licenses/by-nc/4.0/legalcode).>
#
#
#  This model was developed for kinematic assessment only. It should not be used for the evaluation
#  of injury metrics
#
#--------------------------------------------------------------------------------------------------|
#
#---1----|----2----|----3----|----4----|----5----|----6----|----7----|----8----|----9----|---10----|
/BEGIN
example_es2_sled                                                               
      2023         0
                  kg                  mm                  ms
                  kg                  mm                  ms
#---1----|----2----|----3----|----4----|----5----|----6----|----7----|----8----|----9----|---10----|
#-  1. CONTROL CARDS:
#---1----|----2----|----3----|----4----|----5----|----6----|----7----|----8----|----9----|---10----|
/TITLE

#---1----|----2----|----3----|----4----|----5----|----6----|----7----|----8----|----9----|---10----|
#include EuroSID_II_0000.rad
#---1----|----2----|----3----|----4----|----5----|----6----|----7----|----8----|----9----|---10----|
#-  2. MATERIALS:
#---1----|----2----|----3----|----4----|----5----|----6----|----7----|----8----|----9----|---10----|
/MAT/PLAS_JOHNS/1
Seat support
#              RHO_I
              7.9E-6                   0
#                  E                  Nu     Iflag
                 210                  .3         0
#                  a                   b                   n           EPS_p_max            SIG_max0
                  .4                 .45                  .6                   0                   0
#                  c           EPS_DOT_0       ICC   Fsmooth               F_cut               Chard
                   0                   0         0         0                   0                   0
#                  m              T_melt              rhoC_p                 T_r
                   0                   0                   0                   0
#---1----|----2----|----3----|----4----|----5----|----6----|----7----|----8----|----9----|---10----|
/MAT/PLAS_JOHNS/2
lap belt anchorage
#              RHO_I
              7.9E-6                   0
#                  E                  Nu     Iflag
                 210                  .3         0
#                  a                   b                   n           EPS_p_max            SIG_max0
                 200                 450                  .5                1E30                 425
#                  c           EPS_DOT_0       ICC   Fsmooth               F_cut               Chard
                   0                   0         0         0                   0                   0
#                  m              T_melt              rhoC_p                 T_r
                   0                   0                   0                   0
#---1----|----2----|----3----|----4----|----5----|----6----|----7----|----8----|----9----|---10----|
/MAT/PLAS_JOHNS/3
floor
#              RHO_I
              7.9E-6                   0
#                  E                  Nu     Iflag
                 205                  .3         0
#                  a                   b                   n           EPS_p_max            SIG_max0
                 200                 450                  .5                1E30                 425
#                  c           EPS_DOT_0       ICC   Fsmooth               F_cut               Chard
                   0                   0         0         0                   0                   0
#                  m              T_melt              rhoC_p                 T_r
                   0                   0                   0                   0
#---1----|----2----|----3----|----4----|----5----|----6----|----7----|----8----|----9----|---10----|
/MAT/PLAS_JOHNS/4
anchorage
#              RHO_I
              7.9E-6                   0
#                  E                  Nu     Iflag
                 210                  .3         0
#                  a                   b                   n           EPS_p_max            SIG_max0
                 200                 450                  .5                1E30                 425
#                  c           EPS_DOT_0       ICC   Fsmooth               F_cut               Chard
                   0                   0         0         0                   0                   0
#                  m              T_melt              rhoC_p                 T_r
                   0                   0                   0                   0
#---1----|----2----|----3----|----4----|----5----|----6----|----7----|----8----|----9----|---10----|
/MAT/FOAM_PLAS/5
seat foam
#              RHO_I
                1E-7                   0
#                  E        Ka  func_IDf          Fscalecurv
                .015         0         3                .001
#                 P0                 Phi             Gamma_0
                   0                   0                   0
#                  A                   B                   C
                   0                   0                   0
#---1----|----2----|----3----|----4----|----5----|----6----|----7----|----8----|----9----|---10----|
/MAT/FABRI/6
seat tissue
#              RHO_I               RHO_O
                2E-7                   0
#                E11                 E22                NU12
                  .2                  .2                  .3
#                G12                 G23                 G31
                .076                .076                .076
#                R_E                              ZEROSTRESS          FSCALE_POR   SENS_ID
                .001                                       0                   0         0
#---1----|----2----|----3----|----4----|----5----|----6----|----7----|----8----|----9----|---10----|
/MAT/PLAS_JOHNS/7
Seat support
#              RHO_I
              7.9E-6                   0
#                  E                  Nu     Iflag
                 210                  .3         0
#                  a                   b                   n           EPS_p_max            SIG_max0
                  .4                 .45                  .6                   0                   0
#                  c           EPS_DOT_0       ICC   Fsmooth               F_cut               Chard
                   0                   0         0         0                   0                   0
#                  m              T_melt              rhoC_p                 T_r
                   0                   0                   0                   0
#---1----|----2----|----3----|----4----|----5----|----6----|----7----|----8----|----9----|---10----|
/MAT/FOAM_PLAS/8
seat foam
#              RHO_I
                1E-7                   0
#                  E        Ka  func_IDf          Fscalecurv
                .015         0         5                .001
#                 P0                 Phi             Gamma_0
                   0                   0                   0
#                  A                   B                   C
                   0                   0                   0
#---1----|----2----|----3----|----4----|----5----|----6----|----7----|----8----|----9----|---10----|
/MAT/FABRI/9
seat tissue
#              RHO_I               RHO_O
                2E-7                   0
#                E11                 E22                NU12
                  .2                  .2                  .3
#                G12                 G23                 G31
                .076                .076                .076
#                R_E                              ZEROSTRESS          FSCALE_POR   SENS_ID
                .001                                       0                   0         0
#---1----|----2----|----3----|----4----|----5----|----6----|----7----|----8----|----9----|---10----|
/MAT/LAW65/10
2D__BELT
#              RHO_I
            1.098E-6                   0
#                 E0                  NU             EPS_max
                  60                  .3                   0
#    Nrate   Fsmooth                Fcut
         1         0                   0
#FUNC_IDld FUNC_IDul       FSCALESTRESS                 EPS
         6         7                  10                   0
#---1----|----2----|----3----|----4----|----5----|----6----|----7----|----8----|----9----|---10----|
/MAT/FOAM_PLAS/12
seat foam
#              RHO_I
                1E-7                   0
#                  E        Ka  func_IDf          Fscalecurv
                .015         0         8                .001
#                 P0                 Phi             Gamma_0
                   0                   0                   0
#                  A                   B                   C
                   0                   0                   0
#---1----|----2----|----3----|----4----|----5----|----6----|----7----|----8----|----9----|---10----|
/MAT/PLAS_JOHNS/13
Seat support
#              RHO_I
              7.9E-6                   0
#                  E                  Nu     Iflag
                 210                  .3         0
#                  a                   b                   n           EPS_p_max            SIG_max0
                  .4                 .45                  .6                   0                   0
#                  c           EPS_DOT_0       ICC   Fsmooth               F_cut               Chard
                   0                   0         0         0                   0                   0
#                  m              T_melt              rhoC_p                 T_r
                   0                   0                   0                   0
#---1----|----2----|----3----|----4----|----5----|----6----|----7----|----8----|----9----|---10----|
/MAT/FABRI/15000152
2D Belt
#              RHO_I               RHO_O
                2E-6                   0
#                E11                 E22                NU12
                 2.5                 2.5                  .1
#                G12                 G23                 G31
                 1.2                 1.2                 1.2
#                R_E                              ZEROSTRESS          FSCALE_POR   SENS_ID
                  .1                                       0                   0         0
#---1----|----2----|----3----|----4----|----5----|----6----|----7----|----8----|----9----|---10----|
/MAT/FABRI/15000153
2D Belt
#              RHO_I               RHO_O
                2E-6                   0
#                E11                 E22                NU12
                 2.5                 2.5                  .1
#                G12                 G23                 G31
                 1.2                 1.2                 1.2
#                R_E                              ZEROSTRESS          FSCALE_POR   SENS_ID
                  .1                                       0                   0         0
#---1----|----2----|----3----|----4----|----5----|----6----|----7----|----8----|----9----|---10----|
#-  3. NODES:
#---1----|----2----|----3----|----4----|----5----|----6----|----7----|----8----|----9----|---10----|
/NODE
         1    157.506594640622    172.999543884798    309.203064101981
         2    157.506594640622    422.999543884798    309.203064101981
         3    157.506594640622    -77.000456115202    309.203064101981
         4    193.318623141242     47.999543884798    512.303170187157
         5    193.318623141242    172.999543884798    512.303170187157
         6    157.506594640622     47.999543884798    309.203064101981
         7    193.318623141242    -77.000456115202    512.303170187157
         8    121.694566139898     47.999543884798    106.102958016834
         9    121.694566139898    -77.000456115202    106.102958016834
        10    121.694566139898    172.999543884798    106.102958016834
        11    121.694566139898    297.999543884798    106.102958016834
        12    157.506594640622    297.999543884798    309.203064101981
        13    121.694566139898    422.999543884798    106.102958016834
        14    193.318623141242    297.999543884798    512.303170187157
        15    193.318623141242    422.999543884798    512.303170187157
        16    -2.4193375776526    -77.000456115203    -94.259739884992
        17    -372.80246530083    422.999543884799    -35.596815494907
        18    -2.4193375776501    422.999543884797    -94.259739884993
        19    -372.80246530083    -77.000456115201    -35.596815494907
        20     139.60058039031    360.499543884798    207.653011059412
# ... 27662 like lines cut
#---1----|----2----|----3----|----4----|----5----|----6----|----7----|----8----|----9----|---10----|
#-  4. BOUNDARY CONDITIONS:
#---1----|----2----|----3----|----4----|----5----|----6----|----7----|----8----|----9----|---10----|
/BCS/1
Floor
#  Tra rot   skew_ID  grnod_ID
   101 111         0         3
/GRNOD/NODE/3
BCS_group_342_of_NODE
      6310
#---1----|----2----|----3----|----4----|----5----|----6----|----7----|----8----|----9----|---10----|
#-  5. PARTS:
#---1----|----2----|----3----|----4----|----5----|----6----|----7----|----8----|----9----|---10----|
/PART/1
Backseat plate
         1         1         4
#---1----|----2----|----3----|----4----|----5----|----6----|----7----|----8----|----9----|---10----|
# SHELL elements of /PART/1/Backseat plate:
#---1----|----2----|----3----|----4----|----5----|----6----|----7----|----8----|----9----|---10----|
/SHELL/1
         1       150      1229      1228      1232
         2       348      1230      1228      1229
         3       346      1231      1228      1230
         4       347      1232      1228      1231
         5       198      1234      1233      1237
         6       501      1235      1233      1234
         7       537      1236      1233      1235
         8       538      1237      1233      1236
         9       197      1239      1238      1241
        10       538      1236      1238      1239
        11       537      1240      1238      1236
        12       536      1241      1238      1240
        13       199      1243      1242      1245
        14       536      1240      1242      1243
        15       537      1244      1242      1240
        16       526      1245      1242      1244
        17        37      1247      1246      1248
        18       526      1244      1246      1247
        19       537      1235      1246      1244
        20       501      1248      1246      1235
# ... 2388 like lines cut
#---1----|----2----|----3----|----4----|----5----|----6----|----7----|----8----|----9----|---10----|
/PART/2
Feet
         2         1         4
#---1----|----2----|----3----|----4----|----5----|----6----|----7----|----8----|----9----|---10----|
# BEAM elements of /PART/2/Feet:
#---1----|----2----|----3----|----4----|----5----|----6----|----7----|----8----|----9----|---10----|
/BEAM/2
     30562       246       250        19
     30563       248       244        16
     30564       249       245        17
     30565       247       243        18
#---1----|----2----|----3----|----4----|----5----|----6----|----7----|----8----|----9----|---10----|
/PART/3
Backseat frame
         3         1         4
#---1----|----2----|----3----|----4----|----5----|----6----|----7----|----8----|----9----|---10----|
# SHELL elements of /PART/3/Backseat frame:
#---1----|----2----|----3----|----4----|----5----|----6----|----7----|----8----|----9----|---10----|
/SHELL/3
        69       226      1292      1291      1295
        70       411      1293      1291      1292
        71       409      1294      1291      1293
        72       410      1295      1291      1294
        74       410      1294      1296      1297
        75       409      1298      1296      1294
       177       160      1389      1388      1392
       178       572      1390      1388      1389
       179       571      1391      1388      1390
       180       563      1392      1388      1391
       189         6      1402      1401      1403
       190       544      1399      1401      1402
       191       571      1390      1401      1399
       192       572      1403      1401      1390
       237       110      1440      1439      1442
       238       497      1437      1439      1440
       239       495      1441      1439      1437
       240       496      1442      1439      1441
       241        39      1444      1443      1445
       242       496      1441      1443      1444
# ... 3446 like lines cut
#---1----|----2----|----3----|----4----|----5----|----6----|----7----|----8----|----9----|---10----|
/PART/4
belt anchorage
         4         2         1
#---1----|----2----|----3----|----4----|----5----|----6----|----7----|----8----|----9----|---10----|
# TRUSS elements of /PART/4/belt anchorage:
#---1----|----2----|----3----|----4----|----5----|----6----|----7----|----8----|----9----|---10----|
/TRUSS/4
     30560      5738      5735
     30561      5734      5741
#---1----|----2----|----3----|----4----|----5----|----6----|----7----|----8----|----9----|---10----|
/PART/5
Belt pulley
         5         0         1
#---1----|----2----|----3----|----4----|----5----|----6----|----7----|----8----|----9----|---10----|
# SPRING elements of /PART/5/Belt pulley:
#---1----|----2----|----3----|----4----|----5----|----6----|----7----|----8----|----9----|---10----|
/SPRING/5
     30569      5739      5741      5737                              
     30570      5740      5736      5743                              
#---1----|----2----|----3----|----4----|----5----|----6----|----7----|----8----|----9----|---10----|
/PART/6
Limiter
         6         0         1
#---1----|----2----|----3----|----4----|----5----|----6----|----7----|----8----|----9----|---10----|
# SPRING elements of /PART/6/Limiter:
#---1----|----2----|----3----|----4----|----5----|----6----|----7----|----8----|----9----|---10----|
/SPRING/6
     30571      5742      5743                                        
#---1----|----2----|----3----|----4----|----5----|----6----|----7----|----8----|----9----|---10----|
/PART/7
Pretensionner
         7         0         1
#---1----|----2----|----3----|----4----|----5----|----6----|----7----|----8----|----9----|---10----|
# SPRING elements of /PART/7/Pretensionner:
#---1----|----2----|----3----|----4----|----5----|----6----|----7----|----8----|----9----|---10----|
/SPRING/7
     30572      5735      5742                                        
#---1----|----2----|----3----|----4----|----5----|----6----|----7----|----8----|----9----|---10----|
/PART/8
Floor
         8         3         2
#---1----|----2----|----3----|----4----|----5----|----6----|----7----|----8----|----9----|---10----|
# SHELL elements of /PART/8/Floor:
#---1----|----2----|----3----|----4----|----5----|----6----|----7----|----8----|----9----|---10----|
/SHELL/8
      5875      5757      5828      5827      5831
      5876      5791      5829      5827      5828
      5877      5787      5830      5827      5829
      5878      5790      5831      5827      5830
      5879      5760      5833      5832      5835
      5880      5790      5830      5832      5833
      5881      5787      5834      5832      5830
      5882      5789      5835      5832      5834
      5883      5763      5837      5836      5839
      5884      5789      5834      5836      5837
      5885      5787      5838      5836      5834
      5886      5788      5839      5836      5838
      5887      5754      5841      5840      5842
      5888      5788      5838      5840      5841
      5889      5787      5829      5840      5838
      5890      5791      5842      5840      5829
      5891      5767      5844      5843      5847
      5892      5786      5845      5843      5844
      5893      5784      5846      5843      5845
      5894      5773      5847      5843      5846
# ... 492 like lines cut
#---1----|----2----|----3----|----4----|----5----|----6----|----7----|----8----|----9----|---10----|
/PART/9
Seat belt anchorage point
         9         4         2
#---1----|----2----|----3----|----4----|----5----|----6----|----7----|----8----|----9----|---10----|
# BEAM elements of /PART/9/Seat belt anchorage point:
#---1----|----2----|----3----|----4----|----5----|----6----|----7----|----8----|----9----|---10----|
/BEAM/9
     30566      6307      5744      6309
     30567      5745      6308      6309
     30568      6308      6309      5745
#---1----|----2----|----3----|----4----|----5----|----6----|----7----|----8----|----9----|---10----|
/PART/10
cushion
        10         5         3
#---1----|----2----|----3----|----4----|----5----|----6----|----7----|----8----|----9----|---10----|
# BRICK elements of /PART/10/cushion:
#---1----|----2----|----3----|----4----|----5----|----6----|----7----|----8----|----9----|---10----|
/BRICK/10
     20685      6444      6447      6449      6443      7039      7040      7041      7042
     20686      6443      6449      6450      6442      7042      7041      7043      7044
     20687      6442      6450      6438      6439      7044      7043      7045      7046
     20688      6429      6451      6448      6428      7047      7048      7049      7050
     20689      6451      6449      6447      6448      7048      7041      7040      7049
     20690      6430      6452      6451      6429      7051      7052      7048      7047
     20691      6452      6450      6449      6451      7052      7043      7041      7048
     20692      6431      6437      6452      6430      7053      7054      7052      7051
     20693      6437      6438      6450      6452      7054      7045      7043      7052
     20694      6416      6417      6453      6446      7055      7056      7057      7058
     20695      6446      6453      6454      6445      7058      7057      7059      7060
     20696      6445      6454      6447      6444      7060      7059      7040      7039
     20697      6426      6455      6418      6419      7061      7062      7063      7064
     20698      6455      6453      6417      6418      7062      7057      7056      7063
     20699      6427      6456      6455      6426      7065      7066      7062      7061
     20700      6456      6454      6453      6455      7066      7059      7057      7062
     20701      6428      6448      6456      6427      7050      7049      7066      7065
     20702      6448      6447      6454      6456      7049      7040      7059      7066
     20703      6395      6459      6441      6394      7067      7068      7069      7070
     20704      6459      6460      6440      6441      7068      7071      7072      7069
# ... 3355 like lines cut
#---1----|----2----|----3----|----4----|----5----|----6----|----7----|----8----|----9----|---10----|
/PART/11
Fabric backframe
        11         6         3
#---1----|----2----|----3----|----4----|----5----|----6----|----7----|----8----|----9----|---10----|
# SHELL elements of /PART/11/Fabric backframe:
#---1----|----2----|----3----|----4----|----5----|----6----|----7----|----8----|----9----|---10----|
/SHELL/11
      6387      6920      6313      6311      6388
      6388      6311      6313      7621      7624
      6389      6388      6311      7624      7623
      6390      6339      6312      6338      6687
      6391      6338      6312      7361      7360
      6392      6312      6339      7359      7361
      6393      6916      6314      6313      6920
      6394      6313      6314      7622      7621
      6395      6923      6315      6314      6916
      6396      6314      6315      7633      7622
      6397      6894      6316      6315      6923
      6398      6315      6316      7595      7633
      6399      6316      6894      6905      6317
      6400      6316      6317      7596      7595
      6401      6906      6318      6317      6905
      6402      6317      6318      7601      7596
      6403      6870      6319      6318      6906
      6404      6318      6319      7602      7601
      6405      6998      6320      6319      6870
      6406      6319      6320      7723      7602
# ... 1850 like lines cut
#---1----|----2----|----3----|----4----|----5----|----6----|----7----|----8----|----9----|---10----|
/PART/12
Seat plate
        12         7         4
#---1----|----2----|----3----|----4----|----5----|----6----|----7----|----8----|----9----|---10----|
# SHELL elements of /PART/12/Seat plate:
#---1----|----2----|----3----|----4----|----5----|----6----|----7----|----8----|----9----|---10----|
/SHELL/12
      8257     10715     12125     12124     12128
      8258     11613     12126     12124     12125
      8259     11879     12127     12124     12126
      8260     11220     12128     12124     12127
      8261     10958     12130     12129     12133
      8262     11833     12131     12129     12130
      8263     11876     12132     12129     12131
      8264     11878     12133     12129     12132
      8265     10967     12135     12134     12137
      8266     11878     12132     12134     12135
      8267     11876     12136     12134     12132
      8268     11877     12137     12134     12136
      8269     10798     12139     12138     12141
      8270     11877     12136     12138     12139
      8271     11876     12140     12138     12136
      8272     11213     12141     12138     12140
      8273     10701     12143     12142     12144
      8274     11213     12140     12142     12143
      8275     11876     12131     12142     12140
      8276     11833     12144     12142     12131
# ... 3116 like lines cut
#---1----|----2----|----3----|----4----|----5----|----6----|----7----|----8----|----9----|---10----|
/PART/13
Seat frame
        13         7         4
#---1----|----2----|----3----|----4----|----5----|----6----|----7----|----8----|----9----|---10----|
# SHELL elements of /PART/13/Seat frame:
#---1----|----2----|----3----|----4----|----5----|----6----|----7----|----8----|----9----|---10----|
/SHELL/13
      8437     10961     12280     12279     12283
      8438     11850     12281     12279     12280
      8439     11848     12282     12279     12281
      8440     11846     12283     12279     12282
      8441     10960     12285     12284     12273
      8442     11846     12282     12284     12285
      8443     11848     12286     12284     12282
      8444     11849     12273     12284     12286
      8445     10955     12271     12287     12289
      8446     11849     12286     12287     12271
      8447     11848     12288     12287     12286
      8448     11831     12289     12287     12288
      8449     10709     12291     12290     12292
      8450     11831     12288     12290     12291
      8451     11848     12281     12290     12288
      8452     11850     12292     12290     12281
      8453     10839     12294     12293     12262
      8454     11361     12295     12293     12294
      8455     11844     12296     12293     12295
      8456     11847     12262     12293     12296
# ... 3340 like lines cut
#---1----|----2----|----3----|----4----|----5----|----6----|----7----|----8----|----9----|---10----|
/PART/14
cushion
        14         8         5
#---1----|----2----|----3----|----4----|----5----|----6----|----7----|----8----|----9----|---10----|
# BRICK elements of /PART/14/cushion:
#---1----|----2----|----3----|----4----|----5----|----6----|----7----|----8----|----9----|---10----|
/BRICK/14
     24060     17165     17168     17170     17164     17736     17737     17738     17739
     24061     17164     17170     17171     17163     17739     17738     17740     17741
     24062     17163     17171     17159     17160     17741     17740     17742     17743
     24063     17150     17172     17169     17149     17744     17745     17746     17747
     24064     17172     17170     17168     17169     17745     17738     17737     17746
     24065     17151     17173     17172     17150     17748     17749     17745     17744
     24066     17173     17171     17170     17172     17749     17740     17738     17745
     24067     17152     17158     17173     17151     17750     17751     17749     17748
     24068     17158     17159     17171     17173     17751     17742     17740     17749
     24069     17138     17139     17174     17167     17752     17753     17754     17755
     24070     17167     17174     17175     17166     17755     17754     17756     17757
     24071     17166     17175     17168     17165     17757     17756     17737     17736
     24072     17147     17176     17140     17141     17758     17759     17760     17761
     24073     17176     17174     17139     17140     17759     17754     17753     17760
     24074     17148     17177     17176     17147     17762     17763     17759     17758
     24075     17177     17175     17174     17176     17763     17756     17754     17759
     24076     17149     17169     17177     17148     17747     17746     17763     17762
     24077     17169     17168     17175     17177     17746     17737     17756     17763
     24078     17117     17180     17162     17116     17764     17765     17766     17767
     24079     17180     17181     17161     17162     17765     17768     17769     17766
# ... 3105 like lines cut
#---1----|----2----|----3----|----4----|----5----|----6----|----7----|----8----|----9----|---10----|
/PART/15
Fabric seat cushion
        15         9         5
#---1----|----2----|----3----|----4----|----5----|----6----|----7----|----8----|----9----|---10----|
# SHELL elements of /PART/15/Fabric seat cushion:
#---1----|----2----|----3----|----4----|----5----|----6----|----7----|----8----|----9----|---10----|
/SHELL/15
     14753     17617     17061     17060     17110
     14754     17060     17061     18266     18269
     14755     17110     17060     18269     18268
     14756     17613     17062     17061     17617
     14757     17061     17062     18267     18266
     14758     17620     17063     17062     17613
     14759     17062     17063     18278     18267
     14760     17591     17064     17063     17620
     14761     17063     17064     18240     18278
     14762     17064     17591     17602     17065
     14763     17064     17065     18241     18240
     14764     17603     17066     17065     17602
     14765     17065     17066     18246     18241
     14766     17567     17067     17066     17603
     14767     17066     17067     18247     18246
     14768     17695     17068     17067     17567
     14769     17067     17068     18368     18247
     14770     17691     17069     17068     17695
     14771     17068     17069     18369     18368
     14772     17698     17070     17069     17691
# ... 1730 like lines cut
#---1----|----2----|----3----|----4----|----5----|----6----|----7----|----8----|----9----|---10----|
/PART/18
cushion_hand
        18        12         3
#---1----|----2----|----3----|----4----|----5----|----6----|----7----|----8----|----9----|---10----|
# BRICK elements of /PART/18/cushion_hand:
#---1----|----2----|----3----|----4----|----5----|----6----|----7----|----8----|----9----|---10----|
/BRICK/18
     27185     22158     22161     22163     22157     22753     22754     22755     22756
     27186     22157     22163     22164     22156     22756     22755     22757     22758
     27187     22156     22164     22152     22153     22758     22757     22759     22760
     27188     22143     22165     22162     22142     22761     22762     22763     22764
     27189     22165     22163     22161     22162     22762     22755     22754     22763
     27190     22144     22166     22165     22143     22765     22766     22762     22761
     27191     22166     22164     22163     22165     22766     22757     22755     22762
     27192     22145     22151     22166     22144     22767     22768     22766     22765
     27193     22151     22152     22164     22166     22768     22759     22757     22766
     27194     22130     22131     22167     22160     22769     22770     22771     22772
     27195     22160     22167     22168     22159     22772     22771     22773     22774
     27196     22159     22168     22161     22158     22774     22773     22754     22753
     27197     22140     22169     22132     22133     22775     22776     22777     22778
     27198     22169     22167     22131     22132     22776     22771     22770     22777
     27199     22141     22170     22169     22140     22779     22780     22776     22775
     27200     22170     22168     22167     22169     22780     22773     22771     22776
     27201     22142     22162     22170     22141     22764     22763     22780     22779
     27202     22162     22161     22168     22170     22763     22754     22773     22780
     27203     22109     22173     22155     22108     22781     22782     22783     22784
     27204     22173     22174     22154     22155     22782     22785     22786     22783
# ... 1330 like lines cut
#---1----|----2----|----3----|----4----|----5----|----6----|----7----|----8----|----9----|---10----|
/PART/19
Backseat frame_hand
        19        13         4
#---1----|----2----|----3----|----4----|----5----|----6----|----7----|----8----|----9----|---10----|
# SHELL elements of /PART/19/Backseat frame_hand:
#---1----|----2----|----3----|----4----|----5----|----6----|----7----|----8----|----9----|---10----|
/SHELL/19
     17219     26481     27042     27041     27045
     17220     26592     27043     27041     27042
     17221     26590     27044     27041     27043
     17222     26591     27045     27041     27044
     17223     26591     27044     27046     27047
     17224     26590     27048     27046     27044
     17225     26452     27050     27049     27053
     17226     26658     27051     27049     27050
     17227     26657     27052     27049     27051
     17228     26656     27053     27049     27052
     17229     26396     27056     27055     27057
     17230     26641     27054     27055     27056
     17231     26657     27051     27055     27054
     17232     26658     27057     27055     27051
     17233     26432     27061     27060     27063
     17234     26631     27059     27060     27061
     17235     26629     27062     27060     27059
     17236     26630     27063     27060     27062
     17237     26406     27065     27064     27066
     17238     26630     27062     27064     27065
# ... 3446 like lines cut
#---1----|----2----|----3----|----4----|----5----|----6----|----7----|----8----|----9----|---10----|
/PART/15000201
Shoulder
        16        10         0
#---1----|----2----|----3----|----4----|----5----|----6----|----7----|----8----|----9----|---10----|
# SHELL elements of /PART/15000201/Shoulder:
#---1----|----2----|----3----|----4----|----5----|----6----|----7----|----8----|----9----|---10----|
/SHELL/15000201
  15008998  15016310  15016311  15016316  15016315
  15008999  15016311  15016312  15016317  15016316
  15009000  15016312  15016313  15016318  15016317
  15009001  15016313  15016314  15016319  15016318
  15009002  15016315  15016316  15016321  15016320
  15009003  15016316  15016317  15016322  15016321
  15009004  15016317  15016318  15016323  15016322
  15009005  15016318  15016319  15016324  15016323
  15009006  15016320  15016321  15016326  15016325
  15009007  15016321  15016322  15016327  15016326
  15009008  15016322  15016323  15016328  15016327
  15009009  15016323  15016324  15016329  15016328
  15009010  15016325  15016326  15016331  15016330
  15009011  15016326  15016327  15016332  15016331
  15009012  15016327  15016328  15016333  15016332
  15009013  15016328  15016329  15016334  15016333
  15009014  15016330  15016331  15016336  15016335
  15009015  15016331  15016332  15016337  15016336
  15009016  15016332  15016333  15016338  15016337
  15009017  15016333  15016334  15016339  15016338
# ... 356 like lines cut
#---1----|----2----|----3----|----4----|----5----|----6----|----7----|----8----|----9----|---10----|
/PART/15000202
Lap
        16        10         0
#---1----|----2----|----3----|----4----|----5----|----6----|----7----|----8----|----9----|---10----|
# SHELL elements of /PART/15000202/Lap:
#---1----|----2----|----3----|----4----|----5----|----6----|----7----|----8----|----9----|---10----|
/SHELL/15000202
  15009375  15016787  15016788  15016793  15016792
  15009376  15016788  15016789  15016794  15016793
  15009377  15016789  15016790  15016795  15016794
  15009378  15016790  15016791  15016796  15016795
  15009379  15016792  15016793  15016798  15016797
  15009380  15016793  15016794  15016799  15016798
  15009381  15016794  15016795  15016800  15016799
  15009382  15016795  15016796  15016801  15016800
  15009383  15016797  15016798  15016803  15016802
  15009384  15016798  15016799  15016804  15016803
  15009385  15016799  15016800  15016805  15016804
  15009386  15016800  15016801  15016806  15016805
  15009387  15016802  15016803  15016808  15016807
  15009388  15016803  15016804  15016809  15016808
  15009389  15016804  15016805  15016810  15016809
  15009390  15016805  15016806  15016811  15016810
  15009391  15016807  15016808  15016813  15016812
  15009392  15016808  15016809  15016814  15016813
  15009393  15016809  15016810  15016815  15016814
  15009394  15016810  15016811  15016816  15016815
# ... 328 like lines cut
#---1----|----2----|----3----|----4----|----5----|----6----|----7----|----8----|----9----|---10----|
#-  6. SUBSETS:
#---1----|----2----|----3----|----4----|----5----|----6----|----7----|----8----|----9----|---10----|
/SUBSET/1
Seat model
#---1----|----2----|----3----|----4----|----5----|----6----|----7----|----8----|----9----|---10----|
/SUBSET/2
FLOOR_00_0000.rad
#---1----|----2----|----3----|----4----|----5----|----6----|----7----|----8----|----9----|---10----|
/SUBSET/3
Foams
#---1----|----2----|----3----|----4----|----5----|----6----|----7----|----8----|----9----|---10----|
/SUBSET/4
Seat nafe S3
         1         2         3         5
#---1----|----2----|----3----|----4----|----5----|----6----|----7----|----8----|----9----|---10----|
/SUBSET/5
Foams
#---1----|----2----|----3----|----4----|----5----|----6----|----7----|----8----|----9----|---10----|
/SUBSET/15000201
RADIOSS_ALTAIR_ES2_V1.0_R19_S3 (kg, mm, ms)
  15000006
#---1----|----2----|----3----|----4----|----5----|----6----|----7----|----8----|----9----|---10----|
#-  7. GEOMETRICAL SETS:
#---1----|----2----|----3----|----4----|----5----|----6----|----7----|----8----|----9----|---10----|
/PROP/SHELL/1
Shell
#   Ishell    Ismstr     Ish3n    Idrill                            P_thick_fail
        24         0         0         0                                       0
#                 hm                  hf                  hr                  dm                  dn
                   0                   0                   0                   0                   0
#        N   Istrain               Thick              Ashear              Ithick     Iplas
         5         0                 1.5                   0                   0         0
#---1----|----2----|----3----|----4----|----5----|----6----|----7----|----8----|----9----|---10----|
/PROP/BEAM/2
BEAM
#             Ismstr
                   0
#                 dm                  df
                   0                   0
#               Area                 Iyy                 Izz                 Ixx
                 130               15000               15000               30000
# OmegaDof    Ishear
   000 000         0
#---1----|----2----|----3----|----4----|----5----|----6----|----7----|----8----|----9----|---10----|
/PROP/SHELL/3
Shell
#   Ishell    Ismstr     Ish3n    Idrill                            P_thick_fail
        24         0         0         0                                       0
#                 hm                  hf                  hr                  dm                  dn
                   0                   0                   0                   0                   0
#        N   Istrain               Thick              Ashear              Ithick     Iplas
         5         0                 1.5                   0                   0         0
#---1----|----2----|----3----|----4----|----5----|----6----|----7----|----8----|----9----|---10----|
/PROP/TRUSS/4
Wire
#               Area             Gap_ini
                  50                   0
#---1----|----2----|----3----|----4----|----5----|----6----|----7----|----8----|----9----|---10----|
/PROP/SPR_PUL/5
Belt pulley
#               Mass                               sensor_ID    Isflag     Ileng                Fric
                .001                                       0         0         1                  .2
#                  K                   C                   A                   B                   D
                 100                   0                   0                   0                   0
#funct_ID1         H funct_ID2 funct_ID3 funct_ID4                     delta_min           delta_max
         0         0         0         0         0                             0                   0
#            Fscale1                   E             Ascalex                  H4
                   0                   0                   0                   0
# Fct_IDfr       Ifr            Yscale_F            Xscale_F               F_min               F_max
         0         0                   0                   0                   0                   0
#---1----|----2----|----3----|----4----|----5----|----6----|----7----|----8----|----9----|---10----|
/PROP/SPRING/6
Load limiter
#                  M                               sensor_ID    Isflag     Ileng
                .001                                       0         0         0
#                  K                   C                   A                   B                   D
                  10                   0                   0                   0                   0
#funct_ID1         H funct_ID2 funct_ID3 funct_ID4                     delta_min           delta_max
         1         2         0         0         0                             0                   0
#            Fscale1                   E             Ascalex             HSCALE4
                   1                   0                   0                   0
#---1----|----2----|----3----|----4----|----5----|----6----|----7----|----8----|----9----|---10----|
/PROP/SPR_PRE/7
Pretensioner
#                  M                               sensor_ID     Ilock
                .001                                       1         1
#              Stif0                  F1                  D1                  E1               Stif1
                  10                   0                   0                   0                   0
#  fct_ID1   fct_ID2                                Ascale_2            Ascale_1            Fscale_F
         2         0                                    1000                   1                .001
#---1----|----2----|----3----|----4----|----5----|----6----|----7----|----8----|----9----|---10----|
/PROP/SHELL/8
Shell
#   Ishell    Ismstr     Ish3n    Idrill                            P_thick_fail
        24         0         0         0                                       0
#                 hm                  hf                  hr                  dm                  dn
                   0                   0                   0                   0                   0
#        N   Istrain               Thick              Ashear              Ithick     Iplas
         5         0                 1.5                   0                   0         0
#---1----|----2----|----3----|----4----|----5----|----6----|----7----|----8----|----9----|---10----|
/PROP/BEAM/9
BEAM
#             Ismstr
                   0
#                 dm                  df
                   0                   0
#               Area                 Iyy                 Izz                 Ixx
                 130               15000               15000               30000
# OmegaDof    Ishear
   000 000         0
#---1----|----2----|----3----|----4----|----5----|----6----|----7----|----8----|----9----|---10----|
/PROP/SOLID/10
Foam
#   Isolid    Ismstr               Icpre  Itetra10     Inpts   Itetra4    Iframe                  dn
        24         0                   0         0         0         0         0                   0
#                q_a                 q_b                   h            LAMBDA_V                MU_V
                   0                   0                   0                   0                   0
#             dt_min
                   0
#---1----|----2----|----3----|----4----|----5----|----6----|----7----|----8----|----9----|---10----|
/PROP/SH_ORTH/11
Fabric
#   Ishell    Ismstr     Ish3n    Idrill                            P_thick_fail
        24         0         0         0                                       0
#                 hm                  hf                  hr                  dm                  dn
                   0                   0                   0                   0                   0
#        N   Istrain               Thick              Ashear              Ithick     Iplas
         1         0                  .7                   0                   0         0
#                 Vx                  Vy                  Vz                 Phi
                   1                   1                   1                   0
#---1----|----2----|----3----|----4----|----5----|----6----|----7----|----8----|----9----|---10----|
/PROP/SHELL/12
Shell
#   Ishell    Ismstr     Ish3n    Idrill                            P_thick_fail
        24         0         0         0                                       0
#                 hm                  hf                  hr                  dm                  dn
                   0                   0                   0                   0                   0
#        N   Istrain               Thick              Ashear              Ithick     Iplas
         5         0                 1.5                   0                   0         0
#---1----|----2----|----3----|----4----|----5----|----6----|----7----|----8----|----9----|---10----|
/PROP/SHELL/13
Shell
#   Ishell    Ismstr     Ish3n    Idrill                            P_thick_fail
        24         0         0         0                                       0
#                 hm                  hf                  hr                  dm                  dn
                   0                   0                   0                   0                   0
#        N   Istrain               Thick              Ashear              Ithick     Iplas
         5         0                   3                   0                   0         0
#---1----|----2----|----3----|----4----|----5----|----6----|----7----|----8----|----9----|---10----|
/PROP/SOLID/14
Foam
#   Isolid    Ismstr               Icpre  Itetra10     Inpts   Itetra4    Iframe                  dn
        24         0                   0         0         0         0         0                   0
#                q_a                 q_b                   h            LAMBDA_V                MU_V
                   0                   0                   0                   0                   0
#             dt_min
                   0
#---1----|----2----|----3----|----4----|----5----|----6----|----7----|----8----|----9----|---10----|
/PROP/SH_ORTH/15
Fabric
#   Ishell    Ismstr     Ish3n    Idrill                            P_thick_fail
        24         0         0         0                                       0
#                 hm                  hf                  hr                  dm                  dn
                   0                   0                   0                   0                   0
#        N   Istrain               Thick              Ashear              Ithick     Iplas
         1         0                  .7                   0                   0         0
#                 Vx                  Vy                  Vz                 Phi
                   1                   1                   1                   0
#---1----|----2----|----3----|----4----|----5----|----6----|----7----|----8----|----9----|---10----|
/PROP/SHELL/16
2D Belt
#   Ishell    Ismstr     Ish3n    Idrill                            P_thick_fail
        24         2         0         0                                       0
#                 hm                  hf                  hr                  dm                  dn
                   0                   0                   0                   0                   0
#        N   Istrain               Thick              Ashear              Ithick     Iplas
         2         0                 1.5                   1                   1         2
#---1----|----2----|----3----|----4----|----5----|----6----|----7----|----8----|----9----|---10----|
/PROP/SOLID/18
Foam
#   Isolid    Ismstr               Icpre  Itetra10     Inpts   Itetra4    Iframe                  dn
        24         0                   0         0         0         0         0                   0
#                q_a                 q_b                   h            LAMBDA_V                MU_V
                   0                   0                   0                   0                   0
#             dt_min
                   0
#---1----|----2----|----3----|----4----|----5----|----6----|----7----|----8----|----9----|---10----|
/PROP/SHELL/19
Shell
#   Ishell    Ismstr     Ish3n    Idrill                            P_thick_fail
        24         0         0         0                                       0
#                 hm                  hf                  hr                  dm                  dn
                   0                   0                   0                   0                   0
#        N   Istrain               Thick              Ashear              Ithick     Iplas
         5         0                 1.5                   0                   0         0
#---1----|----2----|----3----|----4----|----5----|----6----|----7----|----8----|----9----|---10----|
/PROP/SH_ORTH/15000201
2D Belt
#   Ishell    Ismstr     Ish3n    Idrill                            P_thick_fail
         4         0         0         0                                       0
#                 hm                  hf                  hr                  dm                  dn
                   0                   0                   0                   0                   0
#        N   Istrain               Thick              Ashear              Ithick     Iplas
         2         0                 1.2                   0                   0         0
#                 Vx                  Vy                  Vz                 Phi
                   0                   0                   1                   0
#---1----|----2----|----3----|----4----|----5----|----6----|----7----|----8----|----9----|---10----|
/PROP/SH_ORTH/15000202
2D Belt
#   Ishell    Ismstr     Ish3n    Idrill                            P_thick_fail
         4         0         0         0                                       0
#                 hm                  hf                  hr                  dm                  dn
                   0                   0                   0                   0                   0
#        N   Istrain               Thick              Ashear              Ithick     Iplas
         2         0                 1.2                   0                   0         0
#                 Vx                  Vy                  Vz                 Phi
                   0                   0                   1                   0
#---1----|----2----|----3----|----4----|----5----|----6----|----7----|----8----|----9----|---10----|
#-  8. FUNCTIONS:
#---1----|----2----|----3----|----4----|----5----|----6----|----7----|----8----|----9----|---10----|
/FUNCT/1
Load limitor
#                  X                   Y
                -100                   0
                   0                   0
                  .6                   6
                 100                   6
                 101                  16
#---1----|----2----|----3----|----4----|----5----|----6----|----7----|----8----|----9----|---10----|
/FUNCT/2
Pretensionner
#                  X                   Y
                -121                 -10
                -120                   0
                 -50                 2.5
                   0                   3
                   1                  10
#---1----|----2----|----3----|----4----|----5----|----6----|----7----|----8----|----9----|---10----|
/FUNCT/3
Foam
#                  X                   Y
                -.75                 1.1
                 -.7                .095
                 -.6                .082
                 -.5                 .07
                 -.4                .059
                 -.3                .044
                 -.2                 .03
                 -.1                .017
                   0                   0
                   1                .017
#---1----|----2----|----3----|----4----|----5----|----6----|----7----|----8----|----9----|---10----|
/FUNCT/4
typic_PULSE_16g
#                  X                   Y
                   0      -6.63432642E-7
           .50000002     -1.574000766E-5
                   1     -1.384084071E-5
                 1.5      1.761201072E-5
           2.0000001     8.8852215024E-5
           2.4999999      2.061065304E-4
                   3     3.7306175301E-4
           3.5000001     5.9349428748E-4
           4.0000002     8.7283325268E-4
           4.4999998       .001216415475
           4.9999999       .001626677523
                 5.5      .0021016042461
           6.0000001      .0026378257131
           6.5000001      .0032403863241
           7.0000002       .003927704256
           7.4999998       .004725899811
           8.0000004      .0056616601131
           8.5000005      .0067590643959
           8.9999996      .0080396502201
           9.4999997      .0095213832273
# ... 381 like lines cut
#---1----|----2----|----3----|----4----|----5----|----6----|----7----|----8----|----9----|---10----|
/FUNCT/5
Foam
#                  X                   Y
                -.75                 1.1
                 -.7                .095
                 -.6                .082
                 -.5                 .07
                 -.4                .059
                 -.3                .044
                 -.2                 .03
                 -.1                .017
                   0                   0
                   1                .017
#---1----|----2----|----3----|----4----|----5----|----6----|----7----|----8----|----9----|---10----|
/FUNCT/6
_LOADING
#                  X                   Y
                   0                   0
         .0099999998          .010285725
                 .02          .026505525
          .029999999         .0506373735
          .039999999           .07556025
          .050000001           .09257175
          .059999999         .1079999925
                 .07            .1214505
          .079999998         .1313407425
          .090000004            .1424175
                  .1             .152703
                 .11           .16259325
                 .12           .17509725
#---1----|----2----|----3----|----4----|----5----|----6----|----7----|----8----|----9----|---10----|
/FUNCT/7
_UNLOADING
#                  X                   Y
                   0                   0
          .059999999                   0
                 .07        .01542854925
          .079999998        .03402194925
          .090000004        .05617582275
                  .1             .081099
                 .11             .116703
                 .12           .17509725
#---1----|----2----|----3----|----4----|----5----|----6----|----7----|----8----|----9----|---10----|
/FUNCT/8
Foam
#                  X                   Y
                -.75                 1.1
                 -.7                .095
                 -.6                .082
                 -.5                 .07
                 -.4                .059
                 -.3                .044
                 -.2                 .03
                 -.1                .017
                   0                   0
                   1                .017
#---1----|----2----|----3----|----4----|----5----|----6----|----7----|----8----|----9----|---10----|
#-  9. SENSORS:
#---1----|----2----|----3----|----4----|----5----|----6----|----7----|----8----|----9----|---10----|
/SENSOR/TIME/1
TIME Sensor
#             Tdelay
                 .02

#---1----|----2----|----3----|----4----|----5----|----6----|----7----|----8----|----9----|---10----|
#- 10. INTERFACES:
#---1----|----2----|----3----|----4----|----5----|----6----|----7----|----8----|----9----|---10----|
/INTER/TYPE19/1
dummy seat
# Secon_id   Main_id      Istf      Ithe      Igap     Iedge      Ibag      Idel     Icurv
        15  15000990         4         0         0         0         0         0         0
#          Gap_scale             Gap_max
                   0                   0
#              Stmin               Stmax          %mesh_size               dtmin  Irem_gap   Irem_i2
                   1                   0                   0                   0         0         0
#              Stfac                Fric             Gap_min              Tstart               Tstop
                   0                  .3                  .2                   0                   0
#      IBC                        Inacti                VisS                VisF              Bumult
       000                             5                   0                   0                   0
#    Ifric    Ifiltr               Xfreq     Iform   Isensor                                 fric_ID
         0         0                   0         2         0                                       0
/SURF/PART/EXT/15
INTER_group_15001137_of_PART
         8        10        15
/SURF/PART/EXT/15000990
dummy
  15000000  15000001  15000002  15000003  15000004  15000005  15000006  15000007  15000009  15000010
  15000011  15000012  15000013  15000014  15000015  15000016  15000017  15000018  15000019  15000020
  15000021  15000022  15000023  15000024  15000025  15000026  15000027  15000028  15000029  15000030
  15000056  15000057  15000058  15000059  15000060  15000061  15000062  15000063  15000064  15000065
  15000066  15000067  15000068  15000069  15000070  15000071  15000072  15000073  15000074  15000075
  15000076  15000077  15000078  15000079  15000080  15000081  15000082  15000083  15000084  15000085
  15000086  15000087  15000088  15000089  15000090  15000095  15000096  15000097  15000098  15000099
  15000100  15000101  15000102  15000103  15000104  15000105  15000106  15000111  15000112  15000113
  15000114  15000115  15000116  15000117  15000118  15000119  15000120  15000121  15000122  15000123
  15000124  15000125  15000126  15000127  15000128  15000129  15000130  15000131  15000132  15000133
  15000134  15000135  15000136  15000143  15000144  15000145  15000146  15000147  15000148  15000149
  15000150  15000152  15000153  15000155  15000156  15000157  15000197
#---1----|----2----|----3----|----4----|----5----|----6----|----7----|----8----|----9----|---10----|
/INTER/TYPE19/2
dummy_belt
# Secon_id   Main_id      Istf      Ithe      Igap     Iedge      Ibag      Idel     Icurv
  15000996  15000997         4         0         0         0         0         0         0
#          Gap_scale             Gap_max
                   0                   0
#              Stmin               Stmax          %mesh_size               dtmin  Irem_gap   Irem_i2
                   1                   0                   0                   0         0         0
#              Stfac                Fric             Gap_min              Tstart               Tstop
                   0                  .2                  .5                   0                   0
#      IBC                        Inacti                VisS                VisF              Bumult
       000                             5                   0                   0                   0
#    Ifric    Ifiltr               Xfreq     Iform   Isensor                                 fric_ID
         0         0                   0         2         0                                       0
/SURF/PART/15000996
INTER_group_15000997_of_PART
  15000201  15000202
/SURF/PART/EXT/15000997
INTER_group_15000998_of_PART
  15000000  15000001  15000002  15000003  15000004  15000005  15000006  15000007  15000009  15000010
  15000011  15000012  15000013  15000014  15000015  15000016  15000017  15000018  15000019  15000020
  15000021  15000022  15000023  15000024  15000025  15000026  15000027  15000028  15000029  15000030
  15000056  15000057  15000058  15000059  15000060  15000061  15000062  15000063  15000064  15000065
  15000066  15000067  15000068  15000069  15000070  15000071  15000072  15000073  15000074  15000075
  15000076  15000077  15000078  15000079  15000080  15000081  15000082  15000083  15000084  15000085
  15000086  15000087  15000088  15000089  15000090  15000095  15000096  15000097  15000098  15000099
  15000100  15000101  15000102  15000103  15000104  15000105  15000106  15000111  15000112  15000113
  15000114  15000115  15000116  15000117  15000118  15000119  15000120  15000121  15000122  15000123
  15000124  15000125  15000126  15000127  15000128  15000129  15000130  15000131  15000132  15000133
  15000134  15000135  15000136  15000143  15000144  15000145  15000146  15000147  15000148  15000149
  15000150  15000152  15000153  15000155  15000156  15000157  15000197
#---1----|----2----|----3----|----4----|----5----|----6----|----7----|----8----|----9----|---10----|
/INTER/TYPE2/3
colle_dossier
# Secon_id   Surf_id    Ignore  Spotflag     Level   Isearch      Idel                       Dsearch
        12        19         1         0         0         0         0                             0
/GRNOD/NODE/12
INTER_group_15001139_of_NODE
         4         5         8        10        11        14        20        22        23        25
        27        28        29        30        31        32        34        35        36        37
        38        40        42        44        46        48        49        50        51        52
        60        61        62        63        64        68        69        70        71        73
        74        76        77        78        79        81        82        85        86        87
        88        90        92        93        94        95        96        98        99       100
       101       102       103       104       105       106       107       109       112       113
       114       115       116       119       121       122       123       124       125       126
       127       128       130       133       135       136       137       138       139       140
       141       142       143       144       145       146       147       148       149       150
       151       152       153       154       155       157       159       161       162       163
       164       165       166       168       173       175       176       177       178       179
       180       181       185       187       188       189       190       191       192       193
       194       195       197       198       199       200       201       202       203       204
       205       206       207       208       209       210       211       212       213       218
       220       221       222       223       224       232       233       234       235       236
       237       238       240       241       242       346       347       348       349       350
       351       352       353       354       355       356       357       358       359       360
       361       362       363       364       365       366       367       368       369       370
       371       372       373       374       375       380       382       385       386       387
# ... 231 like lines cut
/SURF/GRSHEL/19
INTER_group_15001140_of_GRSHEL
        14
/GRSHEL/SHEL/14
INTER_group_15001141_of_SHELL4N
      6387      6390      6393      6395      6397      6399      6401      6403      6405      6407
      6409      6411      6413      6415      6417      6419      6421      6423      6425      6427
      6429      6431      6433      6435      6437      6439      6441      6443      6445      6447
      6449      6451      6453      6455      6457      6459      6461      6463      6465      6467
      6469      6471      6473      6475      6477      6479      6481      6483      6485      6487
      6489      6492      6495      6497      6499      6501      6503      6505      6507      6509
      6511      6513      6515      6517      6519      6521      6523      6525      6527      6529
      6531      6533      6535      6537      6539      6541      6542      6545      6546      6547
      6548      6549      6550      6551      6552      6553      6554      6555      6556      6557
      6558      6559      6560      6561      6562      6563      6564      6565      6566      6567
      6568      6569      6570      6571      6572      6573      6574      6575      6576      6577
      6578      6579      6580      6581      6582      6583      6584      6585      6586      6587
      6588      6589      6590      6591      6592      6593      6594      6595      6596      6597
      6598      6599      6600      6601      6602      6603      6604      6605      6606      6607
      6608      6609      6610      6611      6612      6613      6614      6615      6616      6617
      6618      6619      6620      6621      6622      6623      6624      6625      6626      6627
      6628      6629      6630      6631      6632      6635      6636      6637      6638      6639
      6640      6641      6642      6643      6644      6645      6646      6647      6648      6649
      6650      6651      6652      6653      6654      6655      6656      6657      6658      6659
      6660      6661      6662      6663      6664      6665      6666      6667      6668      6669
# ... 48 like lines cut
#---1----|----2----|----3----|----4----|----5----|----6----|----7----|----8----|----9----|---10----|
/INTER/TYPE2/4
assise
# Secon_id   Surf_id    Ignore  Spotflag     Level   Isearch      Idel                       Dsearch
        13        20         0         0         0         0         0                             0
/GRNOD/PART/13
INTER_group_15001140_of_PART
        12
/SURF/SEG/20
INTER_group_15001141_of_SEGMENT
      2472     17617     17061     17060     17110
      2473     17060     17061     18266     18269
      2474     17110     17060     18269     18268
      2475     17613     17062     17061     17617
      2476     17061     17062     18267     18266
      2477     17617     18265     18266     17061
      2478     17620     17063     17062     17613
      2479     17062     17063     18278     18267
      2480     17613     18264     18267     17062
      2481     17591     17064     17063     17620
      2482     17063     17064     18240     18278
      2483     17620     18277     18278     17063
      2484     17064     17591     17602     17065
      2485     17064     17065     18241     18240
      2486     17591     18243     18240     17064
      2487     17603     17066     17065     17602
      2488     17065     17066     18246     18241
      2489     17065     17602     18242     18241
      2490     17567     17067     17066     17603
      2491     17066     17067     18247     18246
# ... 2930 like lines cut
#---1----|----2----|----3----|----4----|----5----|----6----|----7----|----8----|----9----|---10----|
/INTER/TYPE19/5
Dummy_Left_Side
# Secon_id   Main_id      Istf      Ithe      Igap     Iedge      Ibag      Idel     Icurv
  15001001  15001002         4         0      1000         2         0      1000         0
#          Gap_scale             Gap_max
                   0                   0
#              Stmin               Stmax          %mesh_size               dtmin  Irem_gap   Irem_i2
                   1                   0                   0                   0         0         0
#              Stfac                Fric             Gap_min              Tstart               Tstop
                   0                  .2                   1                   0                   0
#      IBC                        Inacti                VisS                VisF              Bumult
       000                             5                   0                   0                   0
#    Ifric    Ifiltr               Xfreq     Iform   Isensor                                 fric_ID
         0         0                   0         2         0                                       0
/SURF/PART/EXT/15001001
INTER_group_15001002_of_PART
        18        19
/SURF/PART/EXT/15001002
INTER_group_15001003_of_PART
  15000000  15000001  15000002  15000003  15000004  15000005  15000006  15000007  15000009  15000010
  15000011  15000012  15000013  15000014  15000015  15000016  15000017  15000018  15000019  15000020
  15000021  15000022  15000023  15000024  15000025  15000026  15000027  15000028  15000029  15000030
  15000056  15000057  15000058  15000059  15000060  15000061  15000062  15000063  15000064  15000065
  15000066  15000067  15000068  15000069  15000070  15000071  15000072  15000073  15000074  15000075
  15000076  15000077  15000078  15000079  15000080  15000081  15000082  15000083  15000084  15000085
  15000086  15000087  15000088  15000089  15000090  15000095  15000096  15000097  15000098  15000099
  15000100  15000101  15000102  15000103  15000104  15000105  15000106  15000111  15000112  15000113
  15000114  15000115  15000116  15000117  15000118  15000119  15000120  15000121  15000122  15000123
  15000124  15000125  15000126  15000127  15000128  15000129  15000130  15000131  15000132  15000133
  15000134  15000135  15000136  15000143  15000144  15000145  15000146  15000147  15000148  15000149
  15000150  15000152  15000153  15000155  15000156  15000157  15000197
#---1----|----2----|----3----|----4----|----5----|----6----|----7----|----8----|----9----|---10----|
/INTER/TYPE7/6
Foam_Self
# Secon_id   Main_id      Istf      Ithe      Igap                Ibag      Idel     Icurv      Iadm
  15001006  15001004         4         0      1000                   0      1000         0         0
#          Fscalegap             Gap_max             Fpenmax                         Itied
                   0                   0                   0                             0
#              Stmin               Stmax          %mesh_size               dtmin  Irem_gap   Irem_i2
                   1                   0                   0                   0         0         0
#              Stfac                Fric              Gapmin              Tstart               Tstop
                   0                  .2                   1                   0                   0
#      IBC                        Inacti                VisS                VisF              Bumult
       000                             5                   0                   0                   0
#    Ifric    Ifiltr               Xfreq     Iform   sens_ID   fct_IDf             AscaleF   fric_ID
         0         0                   0         2         0         0                   0         0
/GRNOD/SURF/15001006
INTER_group_15001006_of_SURF
  15001004
/SURF/PART/ALL/15001004
INTER_group_15001004_of_PART
        10        14        18
#---1----|----2----|----3----|----4----|----5----|----6----|----7----|----8----|----9----|---10----|
#- 11. RIGID BODIES:
#---1----|----2----|----3----|----4----|----5----|----6----|----7----|----8----|----9----|---10----|
/RBODY/1
Recliner
#     RBID     ISENS     NSKEW    ISPHER                MASS   Gnod_id     IKREM      ICOG   Surf_id
      5732         0         0         0                   0         1         0         0         0
#                Jxx                 Jyy                 Jzz
                   0                   0                   0
#                Jxy                 Jyz                 Jxz
                   0                   0                   0
#  Ioptoff               Ifail
         0         0         0
/GRNOD/NODE/1
RBODY_group_369_of_NODE
        33       229       247       263       342       416       451      1013      1028      1571
      1583      2822      2824      4536      4548      4596      4598      4778      4779      5390
      5391      5392      5393      5394      5395      5396      5441      5442      5443      5444
      5445      5446      5447     10686     10888     11056     11544     11551     11973     11984
     13572     13574     13605     13615     15765     15779     15801     15803     16421     16485
     16486     16487     16488     16489     16490     16491     16492     16493     16494     16495
     16496     16497     16498     16499
#---1----|----2----|----3----|----4----|----5----|----6----|----7----|----8----|----9----|---10----|
/RBODY/2
Recliner 2
#     RBID     ISENS     NSKEW    ISPHER                MASS   Gnod_id     IKREM      ICOG   Surf_id
      5733         0         0         0                   0         2         0         0         0
#                Jxx                 Jyy                 Jzz
                   0                   0                   0
#                Jxy                 Jyz                 Jxz
                   0                   0                   0
#  Ioptoff               Ifail
         0         0         0
/GRNOD/NODE/2
RBODY_group_370_of_NODE
        16        45       184       248       267       325       605       607      1090      1092
      3664      3666      3669      3681      4345      4347      4350      4443      4906      4907
      5332      5333      5334      5335      5336      5337      5338      5383      5384      5385
      5386      5387      5388      5389     10685     10931     10986     11072     11719     11725
     11927     11929     12818     12830     12839     12841     15954     15956     15959     15969
     16285     16286     16287     16288     16289     16290     16291     16292     16293     16349
     16350     16351     16352     16353     16354     16355     16356     16357
#---1----|----2----|----3----|----4----|----5----|----6----|----7----|----8----|----9----|---10----|
/RBODY/3
Floor
#     RBID     ISENS     NSKEW    ISPHER                MASS   Gnod_id     IKREM      ICOG   Surf_id
      6310         0         0         0                   0  15001000         0         0         0
#                Jxx                 Jyy                 Jzz
                   0                   0                   0
#                Jxy                 Jyz                 Jxz
                   0                   0                   0
#  Ioptoff               Ifail
         0         0         0
/GRNOD/GRNOD/15001000
RBODY_group_15000998_of_GRNOD
  15000999  15000998
/GRNOD/NODE/15000999
RBODY_group_15000999_of_NODE
       243       244       245       246      5734      5735      5736     22025     22026     22027
     22028     22029     22030     22031     22032     22033     22034     22035     22036     22037
     22038     22039     22040     22041     22042     22043     22044     22045     22046     22047
     22048     22049     22050     22051     22052     22053     22054     22055     22056     22057
     22058     22059     22060     22061     22062     22063     22064     22065     22066     22067
     22068     22069     22070     22071     22072     22073     22074     22075     22076     22077
     22078     22079     22080     22081     22082     22083     22084     22085     22086     22087
     22088     22089     22090     22091     22092     22093     22094     22095     22096     22097
     22098     22099     22100     22101     22102     22103     22104     22105     22106     22107
     22108     22109     22110     22111     22112     22113     22114     22115     22116     22117
     22118     22119     22120     22121     22122     22123     22124     22125     22126     22127
     22128     22129     22130     22131     22132     22133     22134     22135     22136     22137
     22138     22139     22140     22141     22142     22143     22144     22145     22146     22147
     22148     22149     22150     22151     22152     22153     22154     22155     22156     22157
     22158     22159     22160     22161     22162     22163     22164     22165     22166     22167
     22168     22169     22170     22171     22172     22173     22174     22175     22176     22177
     22178     22179     22180     22181     22182     22183     22184     22185     22186     22187
     22188     22189     22190     22191     22192     22193     22194     22195     22196     22197
     22198     22199     22200     22201     22202     22203     22204     22205     22206     22207
     22208     22209     22210     22211     22212     22213     22214     22215     22216     22217
# ... 173 like lines cut
/GRNOD/PART/15000998
RBODY_group_15001000_of_PART
         8         9
#---1----|----2----|----3----|----4----|----5----|----6----|----7----|----8----|----9----|---10----|
/RBODY/15000054
Shoulder_RBody_first_node
#     RBID     ISENS     NSKEW    ISPHER                MASS   Gnod_id     IKREM      ICOG   Surf_id
  15016785         0         0         0                   0  15000968         0         0         0
#                Jxx                 Jyy                 Jzz
                   0                   0                   0
#                Jxy                 Jyz                 Jxz
                   0                   0                   0
#  Ioptoff               Ifail
         0         0         0
/GRNOD/NODE/15000968
Shoulder_RBody_first_node
      5739  15016310  15016311  15016312  15016313  15016314
#---1----|----2----|----3----|----4----|----5----|----6----|----7----|----8----|----9----|---10----|
/RBODY/15000055
Shoulder_RBody_last_node
#     RBID     ISENS     NSKEW    ISPHER                MASS   Gnod_id     IKREM      ICOG   Surf_id
  15016786         0         0         0                   0  15000969         0         0         0
#                Jxx                 Jyy                 Jzz
                   0                   0                   0
#                Jxy                 Jyz                 Jxz
                   0                   0                   0
#  Ioptoff               Ifail
         0         0         0
/GRNOD/NODE/15000969
Shoulder_RBody_last_node
      5740  15016780  15016781  15016782  15016783  15016784
#---1----|----2----|----3----|----4----|----5----|----6----|----7----|----8----|----9----|---10----|
/RBODY/15000056
Lap_RBody_first_node
#     RBID     ISENS     NSKEW    ISPHER                MASS   Gnod_id     IKREM      ICOG   Surf_id
  15017227         0         0         0                   0  15000972         0         0         0
#                Jxx                 Jyy                 Jzz
                   0                   0                   0
#                Jxy                 Jyz                 Jxz
                   0                   0                   0
#  Ioptoff               Ifail
         0         0         0
/GRNOD/NODE/15000972
Lap_RBody_first_node
      5737  15016787  15016788  15016789  15016790  15016791
#---1----|----2----|----3----|----4----|----5----|----6----|----7----|----8----|----9----|---10----|
/RBODY/15000057
Lap_RBody_last_node
#     RBID     ISENS     NSKEW    ISPHER                MASS   Gnod_id     IKREM      ICOG   Surf_id
  15017228         0         0         0                   0  15000973         0         0         0
#                Jxx                 Jyy                 Jzz
                   0                   0                   0
#                Jxy                 Jyz                 Jxz
                   0                   0                   0
#  Ioptoff               Ifail
         0         0         0
/GRNOD/NODE/15000973
Lap_RBody_last_node
      5738  15017222  15017223  15017224  15017225  15017226
#---1----|----2----|----3----|----4----|----5----|----6----|----7----|----8----|----9----|---10----|
#- 12. IMPOSED ACCELERATIONS:
#---1----|----2----|----3----|----4----|----5----|----6----|----7----|----8----|----9----|---10----|
/IMPACC/1
decel pulse
#funct_IDT       Dir   skew_ID sensor_ID  grnod_ID
         4         Y         0         0         8
#           Ascale_x            Fscale_Y              Tstart               Tstop
                   1                   1                   0                   0
/GRNOD/NODE/8
IMPACC_group_15000893_of_NODE
      6310
#---1----|----2----|----3----|----4----|----5----|----6----|----7----|----8----|----9----|---10----|
#- 13. NODE GROUPS:
#---1----|----2----|----3----|----4----|----5----|----6----|----7----|----8----|----9----|---10----|
/GRNOD/NODE/4
Thorax_RBody_first_node
      5740
#---1----|----2----|----3----|----4----|----5----|----6----|----7----|----8----|----9----|---10----|
/GRNOD/NODE/5
Thorax_RBody_last_node
      5737
#---1----|----2----|----3----|----4----|----5----|----6----|----7----|----8----|----9----|---10----|
/GRNOD/NODE/6
Pelvis_RBody_first_node
      5739
#---1----|----2----|----3----|----4----|----5----|----6----|----7----|----8----|----9----|---10----|
/GRNOD/NODE/7
Pelvis_RBody_last_node
      5738
#---1----|----2----|----3----|----4----|----5----|----6----|----7----|----8----|----9----|---10----|
/GRNOD/PART/9
RBODY_group_15001138_of_PART
         8         9
#---1----|----2----|----3----|----4----|----5----|----6----|----7----|----8----|----9----|---10----|
/GRNOD/NODE/10
RBODY_group_15001137_of_NODE
       243       244       245       246      5734      5735      5736
#---1----|----2----|----3----|----4----|----5----|----6----|----7----|----8----|----9----|---10----|
/GRNOD/GRNOD/11
RBODY_group_15001136_of_GRNOD
         9        10
#---1----|----2----|----3----|----4----|----5----|----6----|----7----|----8----|----9----|---10----|
/GRNOD/PART/15000967
GRNOD DUMMY BELT 15000201
  15000066  15000070  15000090  15000111  15000152  15000153
#---1----|----2----|----3----|----4----|----5----|----6----|----7----|----8----|----9----|---10----|
/GRNOD/PART/15000970
GRNOD BELT 15000201
  15000201
#---1----|----2----|----3----|----4----|----5----|----6----|----7----|----8----|----9----|---10----|
/GRNOD/PART/15000971
GRNOD DUMMY BELT 15000201
  15000066  15000070  15000090  15000111  15000152  15000153
#---1----|----2----|----3----|----4----|----5----|----6----|----7----|----8----|----9----|---10----|
/GRNOD/PART/15000974
GRNOD BELT 15000202
  15000202
#---1----|----2----|----3----|----4----|----5----|----6----|----7----|----8----|----9----|---10----|
/GRNOD/SURF/15001005
INTER_group_15001005_of_SURF
  15001004
#---1----|----2----|----3----|----4----|----5----|----6----|----7----|----8----|----9----|---10----|
#---1----|----2----|----3----|----4----|----5----|----6----|----7----|----8----|----9----|---10----|
/SURF/PART/EXT/15000992
SURF DUMMY BELT 15000201
  15000066  15000070  15000090  15000111  15000152  15000153
#---1----|----2----|----3----|----4----|----5----|----6----|----7----|----8----|----9----|---10----|
/SURF/PART/EXT/15000993
SURF BELT 15000201
  15000201
#---1----|----2----|----3----|----4----|----5----|----6----|----7----|----8----|----9----|---10----|
/SURF/PART/EXT/15000994
SURF DUMMY BELT 15000201
  15000066  15000070  15000090  15000111  15000152  15000153
#---1----|----2----|----3----|----4----|----5----|----6----|----7----|----8----|----9----|---10----|
/SURF/PART/EXT/15000995
SURF DUMMY BELT 15000202
  15000066  15000067  15000068  15000070  15000087  15000088  15000089  15000095  15000097  15000111
#---1----|----2----|----3----|----4----|----5----|----6----|----7----|----8----|----9----|---10----|
#- 15. TIME HISTORIES:
#---1----|----2----|----3----|----4----|----5----|----6----|----7----|----8----|----9----|---10----|
/TH/PART/1
foams
#     var1      var2      var3      var4      var5      var6      var7      var8      var9     var10
DEF       
#     Obj1      Obj2      Obj3      Obj4      Obj5      Obj6      Obj7      Obj8      Obj9     Obj10
        14        10
#---1----|----2----|----3----|----4----|----5----|----6----|----7----|----8----|----9----|---10----|
/TH/PART/2
All
#     var1      var2      var3      var4      var5      var6      var7      var8      var9     var10
DEF       
#     Obj1      Obj2      Obj3      Obj4      Obj5      Obj6      Obj7      Obj8      Obj9     Obj10
         4         5         6         7
#---1----|----2----|----3----|----4----|----5----|----6----|----7----|----8----|----9----|---10----|
/TH/PART/3
All
#     var1      var2      var3      var4      var5      var6      var7      var8      var9     var10
DEF       
#     Obj1      Obj2      Obj3      Obj4      Obj5      Obj6      Obj7      Obj8      Obj9     Obj10
         8         9
#---1----|----2----|----3----|----4----|----5----|----6----|----7----|----8----|----9----|---10----|
/TH/PART/4
All
#     var1      var2      var3      var4      var5      var6      var7      var8      var9     var10
DEF       
#     Obj1      Obj2      Obj3      Obj4      Obj5      Obj6      Obj7      Obj8      Obj9     Obj10
        12        13
#---1----|----2----|----3----|----4----|----5----|----6----|----7----|----8----|----9----|---10----|
/TH/PART/5
foams
#     var1      var2      var3      var4      var5      var6      var7      var8      var9     var10
DEF       
#     Obj1      Obj2      Obj3      Obj4      Obj5      Obj6      Obj7      Obj8      Obj9     Obj10
        18
#---1----|----2----|----3----|----4----|----5----|----6----|----7----|----8----|----9----|---10----|
/TH/INTER/15000009
TH INTER
#     var1      var2      var3      var4      var5      var6      var7      var8      var9     var10
DEF       
#     Obj1      Obj2      Obj3      Obj4      Obj5      Obj6      Obj7      Obj8      Obj9     Obj10
         5         6
#---1----|----2----|----3----|----4----|----5----|----6----|----7----|----8----|----9----|---10----|
/END
#---1----|----2----|----3----|----4----|----5----|----6----|----7----|----8----|----9----|---10----|
