#RADIOSS STARTER
#--------------------------------------------------------------------------------------------------|
# <example_h350_sled_belt> ("Model")
# Copyright (C) <2005>-<2026> Altair Engineering Inc. ("Holder")
# Model is licensed by Holder under CC BY-NC 4.0
# (<https://creativecommons.org/licenses/by-nc/4.0/legalcode).>
#
#---1----|----2----|----3----|----4----|----5----|----6----|----7----|----8----|----9----|---10----|
/BEGIN
Sled_belt
      2023         0
                  kg                  mm                  ms
                  kg                  mm                  ms
#---1----|----2----|----3----|----4----|----5----|----6----|----7----|----8----|----9----|---10----|
#-  1. CONTROL CARDS:
#---1----|----2----|----3----|----4----|----5----|----6----|----7----|----8----|----9----|---10----|
/TITLE

#---1----|----2----|----3----|----4----|----5----|----6----|----7----|----8----|----9----|---10----|
#-  2. MATERIALS:
#---1----|----2----|----3----|----4----|----5----|----6----|----7----|----8----|----9----|---10----|
/MAT/LAW65/5000000
2D__BELT
#              RHO_I
            1.098E-6                   0
#                 E0                  NU             EPS_max
                  60                  .3                   0
#    Nrate   Fsmooth                Fcut
         1         0                   0
#FUNC_IDld FUNC_IDul       FSCALESTRESS                 EPS
   5000000   5000001                  10                   0
#---1----|----2----|----3----|----4----|----5----|----6----|----7----|----8----|----9----|---10----|
/MAT/LAW65/5000001
2D_SHOULDER_BELT
#              RHO_I
            1.098E-6                   0
#                 E0                  NU             EPS_max
                  60                  .3                   0
#    Nrate   Fsmooth                Fcut
         1         0                   0
#FUNC_IDld FUNC_IDul       FSCALESTRESS                 EPS
   5000000   5000001                  10                   0
#---1----|----2----|----3----|----4----|----5----|----6----|----7----|----8----|----9----|---10----|
#-  3. NODES:
#---1----|----2----|----3----|----4----|----5----|----6----|----7----|----8----|----9----|---10----|
/NODE
   5000000    -72.563608015442    444.915239307491    -122.47732455541
   5000001    -61.332740680214    445.606836176225    -117.03312464452
   5000002    -50.101873344987    446.298433044958    -111.58892473364
   5000003     -38.87100600976    446.990029913691    -106.14472482276
   5000004    -27.640138674532    447.681626782425    -100.70052491187
   5000005    -77.999371702169    443.451237554402    -111.07052652135
   5000006    -66.693910564164    444.002068361971    -105.76645884847
   5000007    -55.421795304239    444.523575229769    -100.38896425026
   5000008    -44.177107973704    445.010413614812    -94.951134239548
   5000009    -32.947999518039    445.369000951902    -89.471304095046
   5000010    -83.429268621423    441.987373676275    -99.661155407778
   5000011    -72.052532798495    442.397341219371    -94.498616436601
   5000012    -60.741717263491     442.74871741458    -89.189003766872
   5000013    -49.486248850848    443.030776493158    -83.759006208107
   5000014     -38.26692485391    443.056678260809    -78.247554661539
   5000015    -88.853204962322     440.52343093367    -88.249435101485
   5000016    -77.408586487228    440.792540213334    -83.229645449007
   5000017    -66.061639222743     440.97385959939    -77.989043283487
   5000018    -54.798429990826    441.051284107341    -72.568330853962
   5000019    -43.596817787223    440.745637905398    -67.029335959638
# ... 889 like lines cut
#---1----|----2----|----3----|----4----|----5----|----6----|----7----|----8----|----9----|---10----|
#-  4. PARTS:
#---1----|----2----|----3----|----4----|----5----|----6----|----7----|----8----|----9----|---10----|
/PART/5000000
lap
   5000000   5000000         0
#---1----|----2----|----3----|----4----|----5----|----6----|----7----|----8----|----9----|---10----|
# SHELL elements of /PART/5000000/lap:
#---1----|----2----|----3----|----4----|----5----|----6----|----7----|----8----|----9----|---10----|
/SHELL/5000000
   5000000   5000000   5000001   5000006   5000005
   5000001   5000001   5000002   5000007   5000006
   5000002   5000002   5000003   5000008   5000007
   5000003   5000003   5000004   5000009   5000008
   5000004   5000005   5000006   5000011   5000010
   5000005   5000006   5000007   5000012   5000011
   5000006   5000007   5000008   5000013   5000012
   5000007   5000008   5000009   5000014   5000013
   5000008   5000010   5000011   5000016   5000015
   5000009   5000011   5000012   5000017   5000016
   5000010   5000012   5000013   5000018   5000017
   5000011   5000013   5000014   5000019   5000018
   5000012   5000015   5000016   5000021   5000020
   5000013   5000016   5000017   5000022   5000021
   5000014   5000017   5000018   5000023   5000022
   5000015   5000018   5000019   5000024   5000023
   5000016   5000020   5000021   5000026   5000025
   5000017   5000021   5000022   5000027   5000026
   5000018   5000022   5000023   5000028   5000027
   5000019   5000023   5000024   5000029   5000028
# ... 332 like lines cut
#---1----|----2----|----3----|----4----|----5----|----6----|----7----|----8----|----9----|---10----|
/PART/5000001
shoulder
   5000001   5000001         0
#---1----|----2----|----3----|----4----|----5----|----6----|----7----|----8----|----9----|---10----|
# SHELL elements of /PART/5000001/shoulder:
#---1----|----2----|----3----|----4----|----5----|----6----|----7----|----8----|----9----|---10----|
/SHELL/5000001
   5000352   5000447   5000448   5000453   5000452
   5000353   5000448   5000449   5000454   5000453
   5000354   5000449   5000450   5000455   5000454
   5000355   5000450   5000451   5000456   5000455
   5000356   5000452   5000453   5000458   5000457
   5000357   5000453   5000454   5000459   5000458
   5000358   5000454   5000455   5000460   5000459
   5000359   5000455   5000456   5000461   5000460
   5000360   5000457   5000458   5000463   5000462
   5000361   5000458   5000459   5000464   5000463
   5000362   5000459   5000460   5000465   5000464
   5000363   5000460   5000461   5000466   5000465
   5000364   5000462   5000463   5000468   5000467
   5000365   5000463   5000464   5000469   5000468
   5000366   5000464   5000465   5000470   5000469
   5000367   5000465   5000466   5000471   5000470
   5000368   5000467   5000468   5000473   5000472
   5000369   5000468   5000469   5000474   5000473
   5000370   5000469   5000470   5000475   5000474
   5000371   5000470   5000471   5000476   5000475
# ... 344 like lines cut
#---1----|----2----|----3----|----4----|----5----|----6----|----7----|----8----|----9----|---10----|
#-  5. GEOMETRICAL SETS:
#---1----|----2----|----3----|----4----|----5----|----6----|----7----|----8----|----9----|---10----|
/PROP/SHELL/5000000
2D Belt
#   Ishell    Ismstr     Ish3n    Idrill                            P_thick_fail
        24         2         0         0                                       0
#                 hm                  hf                  hr                  dm                  dn
                   0                   0                   0                   0                   0
#        N   Istrain               Thick              Ashear              Ithick     Iplas
         2         0                 1.5                   1                   1         2
#---1----|----2----|----3----|----4----|----5----|----6----|----7----|----8----|----9----|---10----|
/PROP/SHELL/5000001
2D Belt
#   Ishell    Ismstr     Ish3n    Idrill                            P_thick_fail
        24         2         0         0                                       0
#                 hm                  hf                  hr                  dm                  dn
                   0                   0                   0                   0                   0
#        N   Istrain               Thick              Ashear              Ithick     Iplas
         2         0                 1.5                   1                   1         2
#---1----|----2----|----3----|----4----|----5----|----6----|----7----|----8----|----9----|---10----|
#-  6. FUNCTIONS:
#---1----|----2----|----3----|----4----|----5----|----6----|----7----|----8----|----9----|---10----|
/FUNCT/5000000
_LOADING
#                  X                   Y
                   0                   0
         .0099999998          .010285725
                 .02          .026505525
          .029999999         .0506373735
          .039999999           .07556025
          .050000001           .09257175
          .059999999         .1079999925
                 .07            .1214505
          .079999998         .1313407425
          .090000004            .1424175
                  .1             .152703
                 .11           .16259325
                 .12           .17509725
#---1----|----2----|----3----|----4----|----5----|----6----|----7----|----8----|----9----|---10----|
/FUNCT/5000001
_UNLOADING
#                  X                   Y
                   0                   0
          .059999999                   0
                 .07        .01542854925
          .079999998        .03402194925
          .090000004        .05617582275
                  .1             .081099
                 .11             .116703
                 .12           .17509725
#---1----|----2----|----3----|----4----|----5----|----6----|----7----|----8----|----9----|---10----|
/END
#---1----|----2----|----3----|----4----|----5----|----6----|----7----|----8----|----9----|---10----|
